version 2
run debug-0-20170102-12:32:46-3954
attr configname debug
attr datetime 20170102-12:32:46
attr experiment debug
attr inifile omnetpp.ini
attr iterationvars ""
attr iterationvars2 $repetition=0
attr measurement ""
attr network RSUExampleScenario
attr processid 3954
attr repetition 0
attr replication #0
attr resultdir results
attr runnumber 0
attr seedset 0
param **.coreDebug false
param **.debug false
param *.**.nic.mac1609_4.bitrate 9Mbps
param *.**.nic.mac1609_4.txPower 20mW
param *.**.nic.mac1609_4.useServiceChannel false
param *.**.nic.phy80211p.analogueModels "xmldoc(\"config.xml\")"
param *.**.nic.phy80211p.decider "xmldoc(\"config.xml\")"
param *.**.nic.phy80211p.sensitivity -89dBm
param *.**.nic.phy80211p.thermalNoise -110dBm
param *.**.nic.phy80211p.usePropagationDelay true
param *.**.nic.phy80211p.useThermalNoise true
param *.annotations.draw false
param *.connectionManager.alpha 2.0
param *.connectionManager.carrierFrequency "5.890e9 Hz"
param *.connectionManager.pMax 12mW
param *.connectionManager.sat -89dBm
param *.connectionManager.sendDirect true
param *.manager.autoShutdown true
param *.manager.host "\"localhost\""
param *.manager.launchConfig "xmldoc(\"erlangen.launchd.xml\")"
param *.manager.margin 25
param *.manager.moduleDisplayString "\"\""
param *.manager.moduleName "\"node\""
param *.manager.moduleType "\"org.car2x.veins.nodes.Car\""
param *.manager.port 9999
param *.manager.updateInterval 1s
param *.node[*].appl.beaconInterval 1s
param *.node[*].appl.beaconPriority 3
param *.node[*].appl.dataOnSch false
param *.node[*].appl.dataPriority 2
param *.node[*].appl.debug false
param *.node[*].appl.headerLength "256 bit"
param *.node[*].appl.maxOffset 0.005s
param *.node[*].appl.sendBeacons false
param *.node[*].appl.sendData true
param *.node[*].applType "\"TraCIDemo11p\""
param *.node[*].mobilityType "\"TraCIMobility\""
param *.node[*].mobilityType.debug true
param *.node[*].veinsmobility.accidentCount 5
param *.node[*].veinsmobility.accidentDuration 43s
param *.node[*].veinsmobility.accidentStart 85s
param *.node[*].veinsmobility.x 0
param *.node[*].veinsmobility.y 0
param *.node[*].veinsmobility.z 1.895
param *.node[*].veinsmobilityType "\"org.car2x.veins.modules.mobility.traci.TraCIMobility\""
param *.node[*].veinsmobilityType.debug true
param *.obstacles.debug false
param *.obstacles.obstacles "xmldoc(\"config.xml\", \"//AnalogueModel[@type='SimpleObstacleShadowing']/obstacles\")"
param *.playgroundSizeX 2500m
param *.playgroundSizeY 2500m
param *.playgroundSizeZ 50m
param *.rsu[*].appl.beaconInterval 1s
param *.rsu[*].appl.beaconPriority 3
param *.rsu[*].appl.dataOnSch false
param *.rsu[*].appl.dataPriority 2
param *.rsu[*].appl.debug false
param *.rsu[*].appl.headerLength "256 bit"
param *.rsu[*].appl.maxOffset 0.005s
param *.rsu[*].appl.sendBeacons false
param *.rsu[*].appl.sendData true
param *.rsu[*].applType "\"TraCIDemoRSU11p\""
param *.rsu[0].mobility.x 2000
param *.rsu[0].mobility.y 2000
param *.rsu[0].mobility.z 3
param *.world.use2D false
param *.world.useTorus false

scalar RSUExampleScenario.node[0].nic.phy80211p 	busyTime 	0
scalar RSUExampleScenario.node[0].nic.mac1609_4 	ReceivedUnicastPackets 	0
scalar RSUExampleScenario.node[0].nic.mac1609_4 	ReceivedBroadcasts 	0
scalar RSUExampleScenario.node[0].nic.mac1609_4 	SentPackets 	1
scalar RSUExampleScenario.node[0].nic.mac1609_4 	SNIRLostPackets 	0
scalar RSUExampleScenario.node[0].nic.mac1609_4 	RXTXLostPackets 	0
scalar RSUExampleScenario.node[0].nic.mac1609_4 	TotalLostPackets 	0
scalar RSUExampleScenario.node[0].nic.mac1609_4 	DroppedPacketsInMac 	0
scalar RSUExampleScenario.node[0].nic.mac1609_4 	TooLittleTime 	0
scalar RSUExampleScenario.node[0].nic.mac1609_4 	TimesIntoBackoff 	1
scalar RSUExampleScenario.node[0].nic.mac1609_4 	SlotsBackoff 	0
scalar RSUExampleScenario.node[0].nic.mac1609_4 	NumInternalContention 	0
scalar RSUExampleScenario.node[0].nic.mac1609_4 	totalBusyTime 	0.000193
scalar RSUExampleScenario.node[0].veinsmobility 	startTime 	1
scalar RSUExampleScenario.node[0].veinsmobility 	totalTime 	371
scalar RSUExampleScenario.node[0].veinsmobility 	stopTime 	373
scalar RSUExampleScenario.node[0].veinsmobility 	minSpeed 	0
scalar RSUExampleScenario.node[0].veinsmobility 	maxSpeed 	27.768710480146
scalar RSUExampleScenario.node[0].veinsmobility 	totalDistance 	3393.6962829894
scalar RSUExampleScenario.node[0].veinsmobility 	totalCO2Emission 	981.63225100529
scalar RSUExampleScenario.node[1].nic.phy80211p 	busyTime 	8.64e-06
scalar RSUExampleScenario.node[1].nic.mac1609_4 	ReceivedUnicastPackets 	0
scalar RSUExampleScenario.node[1].nic.mac1609_4 	ReceivedBroadcasts 	14
scalar RSUExampleScenario.node[1].nic.mac1609_4 	SentPackets 	1
scalar RSUExampleScenario.node[1].nic.mac1609_4 	SNIRLostPackets 	4
scalar RSUExampleScenario.node[1].nic.mac1609_4 	RXTXLostPackets 	0
scalar RSUExampleScenario.node[1].nic.mac1609_4 	TotalLostPackets 	4
scalar RSUExampleScenario.node[1].nic.mac1609_4 	DroppedPacketsInMac 	0
scalar RSUExampleScenario.node[1].nic.mac1609_4 	TooLittleTime 	0
scalar RSUExampleScenario.node[1].nic.mac1609_4 	TimesIntoBackoff 	2
scalar RSUExampleScenario.node[1].nic.mac1609_4 	SlotsBackoff 	4
scalar RSUExampleScenario.node[1].nic.mac1609_4 	NumInternalContention 	0
scalar RSUExampleScenario.node[1].nic.mac1609_4 	totalBusyTime 	0.003265
scalar RSUExampleScenario.node[1].veinsmobility 	startTime 	3
scalar RSUExampleScenario.node[1].veinsmobility 	totalTime 	399
scalar RSUExampleScenario.node[1].veinsmobility 	stopTime 	403
scalar RSUExampleScenario.node[1].veinsmobility 	minSpeed 	0
scalar RSUExampleScenario.node[1].veinsmobility 	maxSpeed 	27.778188040318
scalar RSUExampleScenario.node[1].veinsmobility 	totalDistance 	3386.7663235579
scalar RSUExampleScenario.node[1].veinsmobility 	totalCO2Emission 	895.8049820778
scalar RSUExampleScenario.node[2].nic.phy80211p 	busyTime 	8.5544554455446e-06
scalar RSUExampleScenario.node[2].nic.mac1609_4 	ReceivedUnicastPackets 	0
scalar RSUExampleScenario.node[2].nic.mac1609_4 	ReceivedBroadcasts 	15
scalar RSUExampleScenario.node[2].nic.mac1609_4 	SentPackets 	1
scalar RSUExampleScenario.node[2].nic.mac1609_4 	SNIRLostPackets 	3
scalar RSUExampleScenario.node[2].nic.mac1609_4 	RXTXLostPackets 	0
scalar RSUExampleScenario.node[2].nic.mac1609_4 	TotalLostPackets 	3
scalar RSUExampleScenario.node[2].nic.mac1609_4 	DroppedPacketsInMac 	0
scalar RSUExampleScenario.node[2].nic.mac1609_4 	TooLittleTime 	0
scalar RSUExampleScenario.node[2].nic.mac1609_4 	TimesIntoBackoff 	1
scalar RSUExampleScenario.node[2].nic.mac1609_4 	SlotsBackoff 	4
scalar RSUExampleScenario.node[2].nic.mac1609_4 	NumInternalContention 	0
scalar RSUExampleScenario.node[2].nic.mac1609_4 	totalBusyTime 	0.003265
scalar RSUExampleScenario.node[2].veinsmobility 	startTime 	5
scalar RSUExampleScenario.node[2].veinsmobility 	totalTime 	403
scalar RSUExampleScenario.node[2].veinsmobility 	stopTime 	409
scalar RSUExampleScenario.node[2].veinsmobility 	minSpeed 	0
scalar RSUExampleScenario.node[2].veinsmobility 	maxSpeed 	27.777677725879
scalar RSUExampleScenario.node[2].veinsmobility 	totalDistance 	3394.8378368673
scalar RSUExampleScenario.node[2].veinsmobility 	totalCO2Emission 	965.10186517601
scalar RSUExampleScenario.node[4].nic.phy80211p 	busyTime 	7.6981132075472e-06
scalar RSUExampleScenario.node[4].nic.mac1609_4 	ReceivedUnicastPackets 	0
scalar RSUExampleScenario.node[4].nic.mac1609_4 	ReceivedBroadcasts 	15
scalar RSUExampleScenario.node[4].nic.mac1609_4 	SentPackets 	1
scalar RSUExampleScenario.node[4].nic.mac1609_4 	SNIRLostPackets 	2
scalar RSUExampleScenario.node[4].nic.mac1609_4 	RXTXLostPackets 	1
scalar RSUExampleScenario.node[4].nic.mac1609_4 	TotalLostPackets 	3
scalar RSUExampleScenario.node[4].nic.mac1609_4 	DroppedPacketsInMac 	0
scalar RSUExampleScenario.node[4].nic.mac1609_4 	TooLittleTime 	0
scalar RSUExampleScenario.node[4].nic.mac1609_4 	TimesIntoBackoff 	2
scalar RSUExampleScenario.node[4].nic.mac1609_4 	SlotsBackoff 	6
scalar RSUExampleScenario.node[4].nic.mac1609_4 	NumInternalContention 	0
scalar RSUExampleScenario.node[4].nic.mac1609_4 	totalBusyTime 	0.003265
scalar RSUExampleScenario.node[4].veinsmobility 	startTime 	8
scalar RSUExampleScenario.node[4].veinsmobility 	totalTime 	423
scalar RSUExampleScenario.node[4].veinsmobility 	stopTime 	432
scalar RSUExampleScenario.node[4].veinsmobility 	minSpeed 	0
scalar RSUExampleScenario.node[4].veinsmobility 	maxSpeed 	27.75182667057
scalar RSUExampleScenario.node[4].veinsmobility 	totalDistance 	3399.1238159565
scalar RSUExampleScenario.node[4].veinsmobility 	totalCO2Emission 	972.32594443324
scalar RSUExampleScenario.node[3].nic.phy80211p 	busyTime 	7.4163090128755e-06
scalar RSUExampleScenario.node[3].nic.mac1609_4 	ReceivedUnicastPackets 	0
scalar RSUExampleScenario.node[3].nic.mac1609_4 	ReceivedBroadcasts 	14
scalar RSUExampleScenario.node[3].nic.mac1609_4 	SentPackets 	1
scalar RSUExampleScenario.node[3].nic.mac1609_4 	SNIRLostPackets 	4
scalar RSUExampleScenario.node[3].nic.mac1609_4 	RXTXLostPackets 	0
scalar RSUExampleScenario.node[3].nic.mac1609_4 	TotalLostPackets 	4
scalar RSUExampleScenario.node[3].nic.mac1609_4 	DroppedPacketsInMac 	0
scalar RSUExampleScenario.node[3].nic.mac1609_4 	TooLittleTime 	0
scalar RSUExampleScenario.node[3].nic.mac1609_4 	TimesIntoBackoff 	2
scalar RSUExampleScenario.node[3].nic.mac1609_4 	SlotsBackoff 	9
scalar RSUExampleScenario.node[3].nic.mac1609_4 	NumInternalContention 	0
scalar RSUExampleScenario.node[3].nic.mac1609_4 	totalBusyTime 	0.003265001444
scalar RSUExampleScenario.node[3].veinsmobility 	startTime 	7
scalar RSUExampleScenario.node[3].veinsmobility 	totalTime 	465
scalar RSUExampleScenario.node[3].veinsmobility 	stopTime 	473
scalar RSUExampleScenario.node[3].veinsmobility 	minSpeed 	0
scalar RSUExampleScenario.node[3].veinsmobility 	maxSpeed 	27.750909077181
scalar RSUExampleScenario.node[3].veinsmobility 	totalDistance 	3402.2425958435
scalar RSUExampleScenario.node[3].veinsmobility 	totalCO2Emission 	1102.2795899954
scalar RSUExampleScenario.node[8].nic.phy80211p 	busyTime 	7.9338842975207e-06
scalar RSUExampleScenario.node[8].nic.mac1609_4 	ReceivedUnicastPackets 	0
scalar RSUExampleScenario.node[8].nic.mac1609_4 	ReceivedBroadcasts 	16
scalar RSUExampleScenario.node[8].nic.mac1609_4 	SentPackets 	1
scalar RSUExampleScenario.node[8].nic.mac1609_4 	SNIRLostPackets 	4
scalar RSUExampleScenario.node[8].nic.mac1609_4 	RXTXLostPackets 	0
scalar RSUExampleScenario.node[8].nic.mac1609_4 	TotalLostPackets 	4
scalar RSUExampleScenario.node[8].nic.mac1609_4 	DroppedPacketsInMac 	0
scalar RSUExampleScenario.node[8].nic.mac1609_4 	TooLittleTime 	0
scalar RSUExampleScenario.node[8].nic.mac1609_4 	TimesIntoBackoff 	2
scalar RSUExampleScenario.node[8].nic.mac1609_4 	SlotsBackoff 	0
scalar RSUExampleScenario.node[8].nic.mac1609_4 	NumInternalContention 	0
scalar RSUExampleScenario.node[8].nic.mac1609_4 	totalBusyTime 	0.0034571285
scalar RSUExampleScenario.node[8].veinsmobility 	startTime 	16
scalar RSUExampleScenario.node[8].veinsmobility 	totalTime 	483
scalar RSUExampleScenario.node[8].veinsmobility 	stopTime 	500
scalar RSUExampleScenario.node[8].veinsmobility 	minSpeed 	0
scalar RSUExampleScenario.node[8].veinsmobility 	maxSpeed 	27.773561144182
scalar RSUExampleScenario.node[8].veinsmobility 	totalDistance 	3390.9863241608
scalar RSUExampleScenario.node[8].veinsmobility 	totalCO2Emission 	1047.3229129324
scalar RSUExampleScenario.node[5].nic.phy80211p 	busyTime 	7.4146341463415e-06
scalar RSUExampleScenario.node[5].nic.mac1609_4 	ReceivedUnicastPackets 	0
scalar RSUExampleScenario.node[5].nic.mac1609_4 	ReceivedBroadcasts 	13
scalar RSUExampleScenario.node[5].nic.mac1609_4 	SentPackets 	1
scalar RSUExampleScenario.node[5].nic.mac1609_4 	SNIRLostPackets 	6
scalar RSUExampleScenario.node[5].nic.mac1609_4 	RXTXLostPackets 	0
scalar RSUExampleScenario.node[5].nic.mac1609_4 	TotalLostPackets 	6
scalar RSUExampleScenario.node[5].nic.mac1609_4 	DroppedPacketsInMac 	0
scalar RSUExampleScenario.node[5].nic.mac1609_4 	TooLittleTime 	0
scalar RSUExampleScenario.node[5].nic.mac1609_4 	TimesIntoBackoff 	1
scalar RSUExampleScenario.node[5].nic.mac1609_4 	SlotsBackoff 	7
scalar RSUExampleScenario.node[5].nic.mac1609_4 	NumInternalContention 	0
scalar RSUExampleScenario.node[5].nic.mac1609_4 	totalBusyTime 	0.003278020502
scalar RSUExampleScenario.node[5].veinsmobility 	startTime 	10
scalar RSUExampleScenario.node[5].veinsmobility 	totalTime 	491
scalar RSUExampleScenario.node[5].veinsmobility 	stopTime 	502
scalar RSUExampleScenario.node[5].veinsmobility 	minSpeed 	0
scalar RSUExampleScenario.node[5].veinsmobility 	maxSpeed 	27.763528873604
scalar RSUExampleScenario.node[5].veinsmobility 	totalDistance 	3395.1769258182
scalar RSUExampleScenario.node[5].veinsmobility 	totalCO2Emission 	1099.1336714255
scalar RSUExampleScenario.node[6].nic.phy80211p 	busyTime 	7.0153846153846e-06
scalar RSUExampleScenario.node[6].nic.mac1609_4 	ReceivedUnicastPackets 	0
scalar RSUExampleScenario.node[6].nic.mac1609_4 	ReceivedBroadcasts 	15
scalar RSUExampleScenario.node[6].nic.mac1609_4 	SentPackets 	1
scalar RSUExampleScenario.node[6].nic.mac1609_4 	SNIRLostPackets 	4
scalar RSUExampleScenario.node[6].nic.mac1609_4 	RXTXLostPackets 	1
scalar RSUExampleScenario.node[6].nic.mac1609_4 	TotalLostPackets 	5
scalar RSUExampleScenario.node[6].nic.mac1609_4 	DroppedPacketsInMac 	0
scalar RSUExampleScenario.node[6].nic.mac1609_4 	TooLittleTime 	0
scalar RSUExampleScenario.node[6].nic.mac1609_4 	TimesIntoBackoff 	2
scalar RSUExampleScenario.node[6].nic.mac1609_4 	SlotsBackoff 	1
scalar RSUExampleScenario.node[6].nic.mac1609_4 	NumInternalContention 	0
scalar RSUExampleScenario.node[6].nic.mac1609_4 	totalBusyTime 	0.003457
scalar RSUExampleScenario.node[6].veinsmobility 	startTime 	12
scalar RSUExampleScenario.node[6].veinsmobility 	totalTime 	519
scalar RSUExampleScenario.node[6].veinsmobility 	stopTime 	532
scalar RSUExampleScenario.node[6].veinsmobility 	minSpeed 	0
scalar RSUExampleScenario.node[6].veinsmobility 	maxSpeed 	27.779343798762
scalar RSUExampleScenario.node[6].veinsmobility 	totalDistance 	3397.0550784155
scalar RSUExampleScenario.node[6].veinsmobility 	totalCO2Emission 	1012.6013487412
scalar RSUExampleScenario.node[9].nic.phy80211p 	busyTime 	7.0560928433269e-06
scalar RSUExampleScenario.node[9].nic.mac1609_4 	ReceivedUnicastPackets 	0
scalar RSUExampleScenario.node[9].nic.mac1609_4 	ReceivedBroadcasts 	16
scalar RSUExampleScenario.node[9].nic.mac1609_4 	SentPackets 	1
scalar RSUExampleScenario.node[9].nic.mac1609_4 	SNIRLostPackets 	3
scalar RSUExampleScenario.node[9].nic.mac1609_4 	RXTXLostPackets 	1
scalar RSUExampleScenario.node[9].nic.mac1609_4 	TotalLostPackets 	4
scalar RSUExampleScenario.node[9].nic.mac1609_4 	DroppedPacketsInMac 	0
scalar RSUExampleScenario.node[9].nic.mac1609_4 	TooLittleTime 	0
scalar RSUExampleScenario.node[9].nic.mac1609_4 	TimesIntoBackoff 	2
scalar RSUExampleScenario.node[9].nic.mac1609_4 	SlotsBackoff 	10
scalar RSUExampleScenario.node[9].nic.mac1609_4 	NumInternalContention 	0
scalar RSUExampleScenario.node[9].nic.mac1609_4 	totalBusyTime 	0.003457128514
scalar RSUExampleScenario.node[9].veinsmobility 	startTime 	17
scalar RSUExampleScenario.node[9].veinsmobility 	totalTime 	516
scalar RSUExampleScenario.node[9].veinsmobility 	stopTime 	534
scalar RSUExampleScenario.node[9].veinsmobility 	minSpeed 	0
scalar RSUExampleScenario.node[9].veinsmobility 	maxSpeed 	27.771861459516
scalar RSUExampleScenario.node[9].veinsmobility 	totalDistance 	3393.7691657424
scalar RSUExampleScenario.node[9].veinsmobility 	totalCO2Emission 	1116.2090224718
scalar RSUExampleScenario.node[11].nic.phy80211p 	busyTime 	7.4274661508704e-06
scalar RSUExampleScenario.node[11].nic.mac1609_4 	ReceivedUnicastPackets 	0
scalar RSUExampleScenario.node[11].nic.mac1609_4 	ReceivedBroadcasts 	15
scalar RSUExampleScenario.node[11].nic.mac1609_4 	SentPackets 	1
scalar RSUExampleScenario.node[11].nic.mac1609_4 	SNIRLostPackets 	5
scalar RSUExampleScenario.node[11].nic.mac1609_4 	RXTXLostPackets 	1
scalar RSUExampleScenario.node[11].nic.mac1609_4 	TotalLostPackets 	6
scalar RSUExampleScenario.node[11].nic.mac1609_4 	DroppedPacketsInMac 	0
scalar RSUExampleScenario.node[11].nic.mac1609_4 	TooLittleTime 	0
scalar RSUExampleScenario.node[11].nic.mac1609_4 	TimesIntoBackoff 	2
scalar RSUExampleScenario.node[11].nic.mac1609_4 	SlotsBackoff 	5
scalar RSUExampleScenario.node[11].nic.mac1609_4 	NumInternalContention 	0
scalar RSUExampleScenario.node[11].nic.mac1609_4 	totalBusyTime 	0.003457001894
scalar RSUExampleScenario.node[11].veinsmobility 	startTime 	20
scalar RSUExampleScenario.node[11].veinsmobility 	totalTime 	516
scalar RSUExampleScenario.node[11].veinsmobility 	stopTime 	537
scalar RSUExampleScenario.node[11].veinsmobility 	minSpeed 	0
scalar RSUExampleScenario.node[11].veinsmobility 	maxSpeed 	27.749026262658
scalar RSUExampleScenario.node[11].veinsmobility 	totalDistance 	3406.5204054819
scalar RSUExampleScenario.node[11].veinsmobility 	totalCO2Emission 	1155.5002290988
scalar RSUExampleScenario.node[7].nic.phy80211p 	busyTime 	7.2727272727273e-06
scalar RSUExampleScenario.node[7].nic.mac1609_4 	ReceivedUnicastPackets 	0
scalar RSUExampleScenario.node[7].nic.mac1609_4 	ReceivedBroadcasts 	15
scalar RSUExampleScenario.node[7].nic.mac1609_4 	SentPackets 	1
scalar RSUExampleScenario.node[7].nic.mac1609_4 	SNIRLostPackets 	5
scalar RSUExampleScenario.node[7].nic.mac1609_4 	RXTXLostPackets 	0
scalar RSUExampleScenario.node[7].nic.mac1609_4 	TotalLostPackets 	5
scalar RSUExampleScenario.node[7].nic.mac1609_4 	DroppedPacketsInMac 	0
scalar RSUExampleScenario.node[7].nic.mac1609_4 	TooLittleTime 	0
scalar RSUExampleScenario.node[7].nic.mac1609_4 	TimesIntoBackoff 	2
scalar RSUExampleScenario.node[7].nic.mac1609_4 	SlotsBackoff 	9
scalar RSUExampleScenario.node[7].nic.mac1609_4 	NumInternalContention 	0
scalar RSUExampleScenario.node[7].nic.mac1609_4 	totalBusyTime 	0.003457
scalar RSUExampleScenario.node[7].veinsmobility 	startTime 	14
scalar RSUExampleScenario.node[7].veinsmobility 	totalTime 	527
scalar RSUExampleScenario.node[7].veinsmobility 	stopTime 	542
scalar RSUExampleScenario.node[7].veinsmobility 	minSpeed 	0
scalar RSUExampleScenario.node[7].veinsmobility 	maxSpeed 	27.737601034408
scalar RSUExampleScenario.node[7].veinsmobility 	totalDistance 	3399.2659990235
scalar RSUExampleScenario.node[7].veinsmobility 	totalCO2Emission 	1131.8034666789
scalar RSUExampleScenario.node[12].nic.phy80211p 	busyTime 	8.3478260869565e-06
scalar RSUExampleScenario.node[12].nic.mac1609_4 	ReceivedUnicastPackets 	0
scalar RSUExampleScenario.node[12].nic.mac1609_4 	ReceivedBroadcasts 	13
scalar RSUExampleScenario.node[12].nic.mac1609_4 	SentPackets 	1
scalar RSUExampleScenario.node[12].nic.mac1609_4 	SNIRLostPackets 	10
scalar RSUExampleScenario.node[12].nic.mac1609_4 	RXTXLostPackets 	0
scalar RSUExampleScenario.node[12].nic.mac1609_4 	TotalLostPackets 	10
scalar RSUExampleScenario.node[12].nic.mac1609_4 	DroppedPacketsInMac 	0
scalar RSUExampleScenario.node[12].nic.mac1609_4 	TooLittleTime 	0
scalar RSUExampleScenario.node[12].nic.mac1609_4 	TimesIntoBackoff 	2
scalar RSUExampleScenario.node[12].nic.mac1609_4 	SlotsBackoff 	5
scalar RSUExampleScenario.node[12].nic.mac1609_4 	NumInternalContention 	0
scalar RSUExampleScenario.node[12].nic.mac1609_4 	totalBusyTime 	0.003649
scalar RSUExampleScenario.node[12].veinsmobility 	startTime 	23
scalar RSUExampleScenario.node[12].veinsmobility 	totalTime 	528
scalar RSUExampleScenario.node[12].veinsmobility 	stopTime 	552
scalar RSUExampleScenario.node[12].veinsmobility 	minSpeed 	0
scalar RSUExampleScenario.node[12].veinsmobility 	maxSpeed 	27.772976816192
scalar RSUExampleScenario.node[12].veinsmobility 	totalDistance 	3392.0866220031
scalar RSUExampleScenario.node[12].veinsmobility 	totalCO2Emission 	1013.101018082
scalar RSUExampleScenario.node[10].nic.phy80211p 	busyTime 	7.5364485981308e-06
scalar RSUExampleScenario.node[10].nic.mac1609_4 	ReceivedUnicastPackets 	0
scalar RSUExampleScenario.node[10].nic.mac1609_4 	ReceivedBroadcasts 	14
scalar RSUExampleScenario.node[10].nic.mac1609_4 	SentPackets 	1
scalar RSUExampleScenario.node[10].nic.mac1609_4 	SNIRLostPackets 	7
scalar RSUExampleScenario.node[10].nic.mac1609_4 	RXTXLostPackets 	0
scalar RSUExampleScenario.node[10].nic.mac1609_4 	TotalLostPackets 	7
scalar RSUExampleScenario.node[10].nic.mac1609_4 	DroppedPacketsInMac 	0
scalar RSUExampleScenario.node[10].nic.mac1609_4 	TooLittleTime 	0
scalar RSUExampleScenario.node[10].nic.mac1609_4 	TimesIntoBackoff 	2
scalar RSUExampleScenario.node[10].nic.mac1609_4 	SlotsBackoff 	4
scalar RSUExampleScenario.node[10].nic.mac1609_4 	NumInternalContention 	0
scalar RSUExampleScenario.node[10].nic.mac1609_4 	totalBusyTime 	0.003457068737
scalar RSUExampleScenario.node[10].veinsmobility 	startTime 	19
scalar RSUExampleScenario.node[10].veinsmobility 	totalTime 	534
scalar RSUExampleScenario.node[10].veinsmobility 	stopTime 	554
scalar RSUExampleScenario.node[10].veinsmobility 	minSpeed 	0
scalar RSUExampleScenario.node[10].veinsmobility 	maxSpeed 	27.751222434836
scalar RSUExampleScenario.node[10].veinsmobility 	totalDistance 	3393.7086853959
scalar RSUExampleScenario.node[10].veinsmobility 	totalCO2Emission 	1200.2531930735
scalar RSUExampleScenario.node[15].nic.phy80211p 	busyTime 	9.4366729678639e-06
scalar RSUExampleScenario.node[15].nic.mac1609_4 	ReceivedUnicastPackets 	0
scalar RSUExampleScenario.node[15].nic.mac1609_4 	ReceivedBroadcasts 	11
scalar RSUExampleScenario.node[15].nic.mac1609_4 	SentPackets 	1
scalar RSUExampleScenario.node[15].nic.mac1609_4 	SNIRLostPackets 	14
scalar RSUExampleScenario.node[15].nic.mac1609_4 	RXTXLostPackets 	1
scalar RSUExampleScenario.node[15].nic.mac1609_4 	TotalLostPackets 	15
scalar RSUExampleScenario.node[15].nic.mac1609_4 	DroppedPacketsInMac 	0
scalar RSUExampleScenario.node[15].nic.mac1609_4 	TooLittleTime 	0
scalar RSUExampleScenario.node[15].nic.mac1609_4 	TimesIntoBackoff 	2
scalar RSUExampleScenario.node[15].nic.mac1609_4 	SlotsBackoff 	6
scalar RSUExampleScenario.node[15].nic.mac1609_4 	NumInternalContention 	0
scalar RSUExampleScenario.node[15].nic.mac1609_4 	totalBusyTime 	0.003649
scalar RSUExampleScenario.node[15].veinsmobility 	startTime 	28
scalar RSUExampleScenario.node[15].veinsmobility 	totalTime 	528
scalar RSUExampleScenario.node[15].veinsmobility 	stopTime 	557
scalar RSUExampleScenario.node[15].veinsmobility 	minSpeed 	0
scalar RSUExampleScenario.node[15].veinsmobility 	maxSpeed 	27.750359571008
scalar RSUExampleScenario.node[15].veinsmobility 	totalDistance 	3400.7579820164
scalar RSUExampleScenario.node[15].veinsmobility 	totalCO2Emission 	1207.3636959906
scalar RSUExampleScenario.node[13].nic.phy80211p 	busyTime 	8.6292134831461e-06
scalar RSUExampleScenario.node[13].nic.mac1609_4 	ReceivedUnicastPackets 	0
scalar RSUExampleScenario.node[13].nic.mac1609_4 	ReceivedBroadcasts 	12
scalar RSUExampleScenario.node[13].nic.mac1609_4 	SentPackets 	1
scalar RSUExampleScenario.node[13].nic.mac1609_4 	SNIRLostPackets 	12
scalar RSUExampleScenario.node[13].nic.mac1609_4 	RXTXLostPackets 	0
scalar RSUExampleScenario.node[13].nic.mac1609_4 	TotalLostPackets 	12
scalar RSUExampleScenario.node[13].nic.mac1609_4 	DroppedPacketsInMac 	0
scalar RSUExampleScenario.node[13].nic.mac1609_4 	TooLittleTime 	0
scalar RSUExampleScenario.node[13].nic.mac1609_4 	TimesIntoBackoff 	1
scalar RSUExampleScenario.node[13].nic.mac1609_4 	SlotsBackoff 	5
scalar RSUExampleScenario.node[13].nic.mac1609_4 	NumInternalContention 	0
scalar RSUExampleScenario.node[13].nic.mac1609_4 	totalBusyTime 	0.003649
scalar RSUExampleScenario.node[13].veinsmobility 	startTime 	25
scalar RSUExampleScenario.node[13].veinsmobility 	totalTime 	533
scalar RSUExampleScenario.node[13].veinsmobility 	stopTime 	559
scalar RSUExampleScenario.node[13].veinsmobility 	minSpeed 	0
scalar RSUExampleScenario.node[13].veinsmobility 	maxSpeed 	27.704398013186
scalar RSUExampleScenario.node[13].veinsmobility 	totalDistance 	3395.3820013416
scalar RSUExampleScenario.node[13].veinsmobility 	totalCO2Emission 	1293.2957359515
scalar RSUExampleScenario.node[14].nic.phy80211p 	busyTime 	9.3483146067416e-06
scalar RSUExampleScenario.node[14].nic.mac1609_4 	ReceivedUnicastPackets 	0
scalar RSUExampleScenario.node[14].nic.mac1609_4 	ReceivedBroadcasts 	11
scalar RSUExampleScenario.node[14].nic.mac1609_4 	SentPackets 	1
scalar RSUExampleScenario.node[14].nic.mac1609_4 	SNIRLostPackets 	15
scalar RSUExampleScenario.node[14].nic.mac1609_4 	RXTXLostPackets 	0
scalar RSUExampleScenario.node[14].nic.mac1609_4 	TotalLostPackets 	15
scalar RSUExampleScenario.node[14].nic.mac1609_4 	DroppedPacketsInMac 	0
scalar RSUExampleScenario.node[14].nic.mac1609_4 	TooLittleTime 	0
scalar RSUExampleScenario.node[14].nic.mac1609_4 	TimesIntoBackoff 	2
scalar RSUExampleScenario.node[14].nic.mac1609_4 	SlotsBackoff 	4
scalar RSUExampleScenario.node[14].nic.mac1609_4 	NumInternalContention 	0
scalar RSUExampleScenario.node[14].nic.mac1609_4 	totalBusyTime 	0.003649
scalar RSUExampleScenario.node[14].veinsmobility 	startTime 	27
scalar RSUExampleScenario.node[14].veinsmobility 	totalTime 	533
scalar RSUExampleScenario.node[14].veinsmobility 	stopTime 	561
scalar RSUExampleScenario.node[14].veinsmobility 	minSpeed 	0
scalar RSUExampleScenario.node[14].veinsmobility 	maxSpeed 	27.770110275866
scalar RSUExampleScenario.node[14].veinsmobility 	totalDistance 	3394.9352192281
scalar RSUExampleScenario.node[14].veinsmobility 	totalCO2Emission 	1107.9017490321
scalar RSUExampleScenario.node[51].nic.phy80211p 	busyTime 	7.2380952380952e-06
scalar RSUExampleScenario.node[51].nic.mac1609_4 	ReceivedUnicastPackets 	0
scalar RSUExampleScenario.node[51].nic.mac1609_4 	ReceivedBroadcasts 	13
scalar RSUExampleScenario.node[51].nic.mac1609_4 	SentPackets 	1
scalar RSUExampleScenario.node[51].nic.mac1609_4 	SNIRLostPackets 	6
scalar RSUExampleScenario.node[51].nic.mac1609_4 	RXTXLostPackets 	1
scalar RSUExampleScenario.node[51].nic.mac1609_4 	TotalLostPackets 	7
scalar RSUExampleScenario.node[51].nic.mac1609_4 	DroppedPacketsInMac 	0
scalar RSUExampleScenario.node[51].nic.mac1609_4 	TooLittleTime 	0
scalar RSUExampleScenario.node[51].nic.mac1609_4 	TimesIntoBackoff 	1
scalar RSUExampleScenario.node[51].nic.mac1609_4 	SlotsBackoff 	7
scalar RSUExampleScenario.node[51].nic.mac1609_4 	NumInternalContention 	0
scalar RSUExampleScenario.node[51].nic.mac1609_4 	totalBusyTime 	0.003073
scalar RSUExampleScenario.node[51].veinsmobility 	startTime 	101
scalar RSUExampleScenario.node[51].veinsmobility 	totalTime 	503
scalar RSUExampleScenario.node[51].veinsmobility 	stopTime 	605
scalar RSUExampleScenario.node[51].veinsmobility 	minSpeed 	0
scalar RSUExampleScenario.node[51].veinsmobility 	maxSpeed 	27.720320022205
scalar RSUExampleScenario.node[51].veinsmobility 	totalDistance 	3395.220879451
scalar RSUExampleScenario.node[51].veinsmobility 	totalCO2Emission 	1148.5312623099
scalar RSUExampleScenario.node[17].nic.phy80211p 	busyTime 	8.3188908145581e-06
scalar RSUExampleScenario.node[17].nic.mac1609_4 	ReceivedUnicastPackets 	0
scalar RSUExampleScenario.node[17].nic.mac1609_4 	ReceivedBroadcasts 	10
scalar RSUExampleScenario.node[17].nic.mac1609_4 	SentPackets 	1
scalar RSUExampleScenario.node[17].nic.mac1609_4 	SNIRLostPackets 	15
scalar RSUExampleScenario.node[17].nic.mac1609_4 	RXTXLostPackets 	0
scalar RSUExampleScenario.node[17].nic.mac1609_4 	TotalLostPackets 	15
scalar RSUExampleScenario.node[17].nic.mac1609_4 	DroppedPacketsInMac 	0
scalar RSUExampleScenario.node[17].nic.mac1609_4 	TooLittleTime 	0
scalar RSUExampleScenario.node[17].nic.mac1609_4 	TimesIntoBackoff 	2
scalar RSUExampleScenario.node[17].nic.mac1609_4 	SlotsBackoff 	13
scalar RSUExampleScenario.node[17].nic.mac1609_4 	NumInternalContention 	0
scalar RSUExampleScenario.node[17].nic.mac1609_4 	totalBusyTime 	0.003457
scalar RSUExampleScenario.node[17].veinsmobility 	startTime 	31
scalar RSUExampleScenario.node[17].veinsmobility 	totalTime 	576
scalar RSUExampleScenario.node[17].veinsmobility 	stopTime 	608
scalar RSUExampleScenario.node[17].veinsmobility 	minSpeed 	0
scalar RSUExampleScenario.node[17].veinsmobility 	maxSpeed 	27.737401402798
scalar RSUExampleScenario.node[17].veinsmobility 	totalDistance 	3409.9591697391
scalar RSUExampleScenario.node[17].veinsmobility 	totalCO2Emission 	1264.0397519361
scalar RSUExampleScenario.node[54].nic.phy80211p 	busyTime 	7.9214145383104e-06
scalar RSUExampleScenario.node[54].nic.mac1609_4 	ReceivedUnicastPackets 	0
scalar RSUExampleScenario.node[54].nic.mac1609_4 	ReceivedBroadcasts 	13
scalar RSUExampleScenario.node[54].nic.mac1609_4 	SentPackets 	1
scalar RSUExampleScenario.node[54].nic.mac1609_4 	SNIRLostPackets 	8
scalar RSUExampleScenario.node[54].nic.mac1609_4 	RXTXLostPackets 	0
scalar RSUExampleScenario.node[54].nic.mac1609_4 	TotalLostPackets 	8
scalar RSUExampleScenario.node[54].nic.mac1609_4 	DroppedPacketsInMac 	0
scalar RSUExampleScenario.node[54].nic.mac1609_4 	TooLittleTime 	0
scalar RSUExampleScenario.node[54].nic.mac1609_4 	TimesIntoBackoff 	1
scalar RSUExampleScenario.node[54].nic.mac1609_4 	SlotsBackoff 	4
scalar RSUExampleScenario.node[54].nic.mac1609_4 	NumInternalContention 	0
scalar RSUExampleScenario.node[54].nic.mac1609_4 	totalBusyTime 	0.003073
scalar RSUExampleScenario.node[54].veinsmobility 	startTime 	108
scalar RSUExampleScenario.node[54].veinsmobility 	totalTime 	508
scalar RSUExampleScenario.node[54].veinsmobility 	stopTime 	617
scalar RSUExampleScenario.node[54].veinsmobility 	minSpeed 	0
scalar RSUExampleScenario.node[54].veinsmobility 	maxSpeed 	27.774858963648
scalar RSUExampleScenario.node[54].veinsmobility 	totalDistance 	3395.7033154953
scalar RSUExampleScenario.node[54].veinsmobility 	totalCO2Emission 	1270.5024378568
scalar RSUExampleScenario.node[39].nic.phy80211p 	busyTime 	1.3664233576642e-05
scalar RSUExampleScenario.node[39].nic.mac1609_4 	ReceivedUnicastPackets 	0
scalar RSUExampleScenario.node[39].nic.mac1609_4 	ReceivedBroadcasts 	29
scalar RSUExampleScenario.node[39].nic.mac1609_4 	SentPackets 	1
scalar RSUExampleScenario.node[39].nic.mac1609_4 	SNIRLostPackets 	10
scalar RSUExampleScenario.node[39].nic.mac1609_4 	RXTXLostPackets 	3
scalar RSUExampleScenario.node[39].nic.mac1609_4 	TotalLostPackets 	13
scalar RSUExampleScenario.node[39].nic.mac1609_4 	DroppedPacketsInMac 	0
scalar RSUExampleScenario.node[39].nic.mac1609_4 	TooLittleTime 	0
scalar RSUExampleScenario.node[39].nic.mac1609_4 	TimesIntoBackoff 	2
scalar RSUExampleScenario.node[39].nic.mac1609_4 	SlotsBackoff 	8
scalar RSUExampleScenario.node[39].nic.mac1609_4 	NumInternalContention 	0
scalar RSUExampleScenario.node[39].nic.mac1609_4 	totalBusyTime 	0.00652900295
scalar RSUExampleScenario.node[39].veinsmobility 	startTime 	72
scalar RSUExampleScenario.node[39].veinsmobility 	totalTime 	547
scalar RSUExampleScenario.node[39].veinsmobility 	stopTime 	620
scalar RSUExampleScenario.node[39].veinsmobility 	minSpeed 	0
scalar RSUExampleScenario.node[39].veinsmobility 	maxSpeed 	27.778087795554
scalar RSUExampleScenario.node[39].veinsmobility 	totalDistance 	3404.8120452244
scalar RSUExampleScenario.node[39].veinsmobility 	totalCO2Emission 	1383.319260476
scalar RSUExampleScenario.node[18].nic.phy80211p 	busyTime 	8.4753820033956e-06
scalar RSUExampleScenario.node[18].nic.mac1609_4 	ReceivedUnicastPackets 	0
scalar RSUExampleScenario.node[18].nic.mac1609_4 	ReceivedBroadcasts 	12
scalar RSUExampleScenario.node[18].nic.mac1609_4 	SentPackets 	1
scalar RSUExampleScenario.node[18].nic.mac1609_4 	SNIRLostPackets 	14
scalar RSUExampleScenario.node[18].nic.mac1609_4 	RXTXLostPackets 	0
scalar RSUExampleScenario.node[18].nic.mac1609_4 	TotalLostPackets 	14
scalar RSUExampleScenario.node[18].nic.mac1609_4 	DroppedPacketsInMac 	0
scalar RSUExampleScenario.node[18].nic.mac1609_4 	TooLittleTime 	0
scalar RSUExampleScenario.node[18].nic.mac1609_4 	TimesIntoBackoff 	1
scalar RSUExampleScenario.node[18].nic.mac1609_4 	SlotsBackoff 	3
scalar RSUExampleScenario.node[18].nic.mac1609_4 	NumInternalContention 	0
scalar RSUExampleScenario.node[18].nic.mac1609_4 	totalBusyTime 	0.003649
scalar RSUExampleScenario.node[18].veinsmobility 	startTime 	33
scalar RSUExampleScenario.node[18].veinsmobility 	totalTime 	588
scalar RSUExampleScenario.node[18].veinsmobility 	stopTime 	622
scalar RSUExampleScenario.node[18].veinsmobility 	minSpeed 	0
scalar RSUExampleScenario.node[18].veinsmobility 	maxSpeed 	27.712539756373
scalar RSUExampleScenario.node[18].veinsmobility 	totalDistance 	3402.539779775
scalar RSUExampleScenario.node[18].veinsmobility 	totalCO2Emission 	1352.3050359252
scalar RSUExampleScenario.node[16].nic.phy80211p 	busyTime 	8.0808080808081e-06
scalar RSUExampleScenario.node[16].nic.mac1609_4 	ReceivedUnicastPackets 	0
scalar RSUExampleScenario.node[16].nic.mac1609_4 	ReceivedBroadcasts 	12
scalar RSUExampleScenario.node[16].nic.mac1609_4 	SentPackets 	1
scalar RSUExampleScenario.node[16].nic.mac1609_4 	SNIRLostPackets 	12
scalar RSUExampleScenario.node[16].nic.mac1609_4 	RXTXLostPackets 	2
scalar RSUExampleScenario.node[16].nic.mac1609_4 	TotalLostPackets 	14
scalar RSUExampleScenario.node[16].nic.mac1609_4 	DroppedPacketsInMac 	0
scalar RSUExampleScenario.node[16].nic.mac1609_4 	TooLittleTime 	0
scalar RSUExampleScenario.node[16].nic.mac1609_4 	TimesIntoBackoff 	1
scalar RSUExampleScenario.node[16].nic.mac1609_4 	SlotsBackoff 	6
scalar RSUExampleScenario.node[16].nic.mac1609_4 	NumInternalContention 	0
scalar RSUExampleScenario.node[16].nic.mac1609_4 	totalBusyTime 	0.003649
scalar RSUExampleScenario.node[16].veinsmobility 	startTime 	30
scalar RSUExampleScenario.node[16].veinsmobility 	totalTime 	593
scalar RSUExampleScenario.node[16].veinsmobility 	stopTime 	624
scalar RSUExampleScenario.node[16].veinsmobility 	minSpeed 	0
scalar RSUExampleScenario.node[16].veinsmobility 	maxSpeed 	27.715720625184
scalar RSUExampleScenario.node[16].veinsmobility 	totalDistance 	3395.152169655
scalar RSUExampleScenario.node[16].veinsmobility 	totalCO2Emission 	1290.1247241016
scalar RSUExampleScenario.node[29].nic.phy80211p 	busyTime 	1.0034843205575e-05
scalar RSUExampleScenario.node[29].nic.mac1609_4 	ReceivedUnicastPackets 	0
scalar RSUExampleScenario.node[29].nic.mac1609_4 	ReceivedBroadcasts 	16
scalar RSUExampleScenario.node[29].nic.mac1609_4 	SentPackets 	1
scalar RSUExampleScenario.node[29].nic.mac1609_4 	SNIRLostPackets 	14
scalar RSUExampleScenario.node[29].nic.mac1609_4 	RXTXLostPackets 	1
scalar RSUExampleScenario.node[29].nic.mac1609_4 	TotalLostPackets 	15
scalar RSUExampleScenario.node[29].nic.mac1609_4 	DroppedPacketsInMac 	0
scalar RSUExampleScenario.node[29].nic.mac1609_4 	TooLittleTime 	0
scalar RSUExampleScenario.node[29].nic.mac1609_4 	TimesIntoBackoff 	1
scalar RSUExampleScenario.node[29].nic.mac1609_4 	SlotsBackoff 	5
scalar RSUExampleScenario.node[29].nic.mac1609_4 	NumInternalContention 	0
scalar RSUExampleScenario.node[29].nic.mac1609_4 	totalBusyTime 	0.0040331188
scalar RSUExampleScenario.node[29].veinsmobility 	startTime 	53
scalar RSUExampleScenario.node[29].veinsmobility 	totalTime 	573
scalar RSUExampleScenario.node[29].veinsmobility 	stopTime 	627
scalar RSUExampleScenario.node[29].veinsmobility 	minSpeed 	0
scalar RSUExampleScenario.node[29].veinsmobility 	maxSpeed 	16.665745878648
scalar RSUExampleScenario.node[29].veinsmobility 	totalDistance 	3260.837689671
scalar RSUExampleScenario.node[29].veinsmobility 	totalCO2Emission 	1177.0859106626
scalar RSUExampleScenario.node[55].nic.phy80211p 	busyTime 	7.1243042671614e-06
scalar RSUExampleScenario.node[55].nic.mac1609_4 	ReceivedUnicastPackets 	0
scalar RSUExampleScenario.node[55].nic.mac1609_4 	ReceivedBroadcasts 	13
scalar RSUExampleScenario.node[55].nic.mac1609_4 	SentPackets 	1
scalar RSUExampleScenario.node[55].nic.mac1609_4 	SNIRLostPackets 	7
scalar RSUExampleScenario.node[55].nic.mac1609_4 	RXTXLostPackets 	1
scalar RSUExampleScenario.node[55].nic.mac1609_4 	TotalLostPackets 	8
scalar RSUExampleScenario.node[55].nic.mac1609_4 	DroppedPacketsInMac 	0
scalar RSUExampleScenario.node[55].nic.mac1609_4 	TooLittleTime 	0
scalar RSUExampleScenario.node[55].nic.mac1609_4 	TimesIntoBackoff 	1
scalar RSUExampleScenario.node[55].nic.mac1609_4 	SlotsBackoff 	0
scalar RSUExampleScenario.node[55].nic.mac1609_4 	NumInternalContention 	0
scalar RSUExampleScenario.node[55].nic.mac1609_4 	totalBusyTime 	0.003073
scalar RSUExampleScenario.node[55].veinsmobility 	startTime 	110
scalar RSUExampleScenario.node[55].veinsmobility 	totalTime 	538
scalar RSUExampleScenario.node[55].veinsmobility 	stopTime 	649
scalar RSUExampleScenario.node[55].veinsmobility 	minSpeed 	0
scalar RSUExampleScenario.node[55].veinsmobility 	maxSpeed 	27.753817835292
scalar RSUExampleScenario.node[55].veinsmobility 	totalDistance 	3407.1920845541
scalar RSUExampleScenario.node[55].veinsmobility 	totalCO2Emission 	1335.3058601265
scalar RSUExampleScenario.node[33].nic.phy80211p 	busyTime 	9.4213197969543e-06
scalar RSUExampleScenario.node[33].nic.mac1609_4 	ReceivedUnicastPackets 	0
scalar RSUExampleScenario.node[33].nic.mac1609_4 	ReceivedBroadcasts 	17
scalar RSUExampleScenario.node[33].nic.mac1609_4 	SentPackets 	1
scalar RSUExampleScenario.node[33].nic.mac1609_4 	SNIRLostPackets 	12
scalar RSUExampleScenario.node[33].nic.mac1609_4 	RXTXLostPackets 	1
scalar RSUExampleScenario.node[33].nic.mac1609_4 	TotalLostPackets 	13
scalar RSUExampleScenario.node[33].nic.mac1609_4 	DroppedPacketsInMac 	0
scalar RSUExampleScenario.node[33].nic.mac1609_4 	TooLittleTime 	0
scalar RSUExampleScenario.node[33].nic.mac1609_4 	TimesIntoBackoff 	1
scalar RSUExampleScenario.node[33].nic.mac1609_4 	SlotsBackoff 	7
scalar RSUExampleScenario.node[33].nic.mac1609_4 	NumInternalContention 	0
scalar RSUExampleScenario.node[33].nic.mac1609_4 	totalBusyTime 	0.004225051848
scalar RSUExampleScenario.node[33].veinsmobility 	startTime 	60
scalar RSUExampleScenario.node[33].veinsmobility 	totalTime 	590
scalar RSUExampleScenario.node[33].veinsmobility 	stopTime 	651
scalar RSUExampleScenario.node[33].veinsmobility 	minSpeed 	0
scalar RSUExampleScenario.node[33].veinsmobility 	maxSpeed 	27.754512508195
scalar RSUExampleScenario.node[33].veinsmobility 	totalDistance 	3397.5734771131
scalar RSUExampleScenario.node[33].veinsmobility 	totalCO2Emission 	1391.6613092036
scalar RSUExampleScenario.node[19].nic.phy80211p 	busyTime 	8.064620355412e-06
scalar RSUExampleScenario.node[19].nic.mac1609_4 	ReceivedUnicastPackets 	0
scalar RSUExampleScenario.node[19].nic.mac1609_4 	ReceivedBroadcasts 	11
scalar RSUExampleScenario.node[19].nic.mac1609_4 	SentPackets 	1
scalar RSUExampleScenario.node[19].nic.mac1609_4 	SNIRLostPackets 	15
scalar RSUExampleScenario.node[19].nic.mac1609_4 	RXTXLostPackets 	0
scalar RSUExampleScenario.node[19].nic.mac1609_4 	TotalLostPackets 	15
scalar RSUExampleScenario.node[19].nic.mac1609_4 	DroppedPacketsInMac 	0
scalar RSUExampleScenario.node[19].nic.mac1609_4 	TooLittleTime 	0
scalar RSUExampleScenario.node[19].nic.mac1609_4 	TimesIntoBackoff 	1
scalar RSUExampleScenario.node[19].nic.mac1609_4 	SlotsBackoff 	1
scalar RSUExampleScenario.node[19].nic.mac1609_4 	NumInternalContention 	0
scalar RSUExampleScenario.node[19].nic.mac1609_4 	totalBusyTime 	0.003457
scalar RSUExampleScenario.node[19].veinsmobility 	startTime 	34
scalar RSUExampleScenario.node[19].veinsmobility 	totalTime 	618
scalar RSUExampleScenario.node[19].veinsmobility 	stopTime 	653
scalar RSUExampleScenario.node[19].veinsmobility 	minSpeed 	0
scalar RSUExampleScenario.node[19].veinsmobility 	maxSpeed 	27.754203486498
scalar RSUExampleScenario.node[19].veinsmobility 	totalDistance 	3394.9714580272
scalar RSUExampleScenario.node[19].veinsmobility 	totalCO2Emission 	1344.8179776028
scalar RSUExampleScenario.node[27].nic.phy80211p 	busyTime 	9.8056013179572e-06
scalar RSUExampleScenario.node[27].nic.mac1609_4 	ReceivedUnicastPackets 	0
scalar RSUExampleScenario.node[27].nic.mac1609_4 	ReceivedBroadcasts 	17
scalar RSUExampleScenario.node[27].nic.mac1609_4 	SentPackets 	1
scalar RSUExampleScenario.node[27].nic.mac1609_4 	SNIRLostPackets 	14
scalar RSUExampleScenario.node[27].nic.mac1609_4 	RXTXLostPackets 	1
scalar RSUExampleScenario.node[27].nic.mac1609_4 	TotalLostPackets 	15
scalar RSUExampleScenario.node[27].nic.mac1609_4 	DroppedPacketsInMac 	0
scalar RSUExampleScenario.node[27].nic.mac1609_4 	TooLittleTime 	0
scalar RSUExampleScenario.node[27].nic.mac1609_4 	TimesIntoBackoff 	1
scalar RSUExampleScenario.node[27].nic.mac1609_4 	SlotsBackoff 	5
scalar RSUExampleScenario.node[27].nic.mac1609_4 	NumInternalContention 	0
scalar RSUExampleScenario.node[27].nic.mac1609_4 	totalBusyTime 	0.004225150909
scalar RSUExampleScenario.node[27].veinsmobility 	startTime 	49
scalar RSUExampleScenario.node[27].veinsmobility 	totalTime 	606
scalar RSUExampleScenario.node[27].veinsmobility 	stopTime 	656
scalar RSUExampleScenario.node[27].veinsmobility 	minSpeed 	0
scalar RSUExampleScenario.node[27].veinsmobility 	maxSpeed 	16.65388248357
scalar RSUExampleScenario.node[27].veinsmobility 	totalDistance 	3356.4488898297
scalar RSUExampleScenario.node[27].veinsmobility 	totalCO2Emission 	1206.3856888107
scalar RSUExampleScenario.node[31].nic.phy80211p 	busyTime 	8.9302325581395e-06
scalar RSUExampleScenario.node[31].nic.mac1609_4 	ReceivedUnicastPackets 	0
scalar RSUExampleScenario.node[31].nic.mac1609_4 	ReceivedBroadcasts 	18
scalar RSUExampleScenario.node[31].nic.mac1609_4 	SentPackets 	1
scalar RSUExampleScenario.node[31].nic.mac1609_4 	SNIRLostPackets 	9
scalar RSUExampleScenario.node[31].nic.mac1609_4 	RXTXLostPackets 	4
scalar RSUExampleScenario.node[31].nic.mac1609_4 	TotalLostPackets 	13
scalar RSUExampleScenario.node[31].nic.mac1609_4 	DroppedPacketsInMac 	0
scalar RSUExampleScenario.node[31].nic.mac1609_4 	TooLittleTime 	0
scalar RSUExampleScenario.node[31].nic.mac1609_4 	TimesIntoBackoff 	2
scalar RSUExampleScenario.node[31].nic.mac1609_4 	SlotsBackoff 	7
scalar RSUExampleScenario.node[31].nic.mac1609_4 	NumInternalContention 	0
scalar RSUExampleScenario.node[31].nic.mac1609_4 	totalBusyTime 	0.004033213133
scalar RSUExampleScenario.node[31].veinsmobility 	startTime 	56
scalar RSUExampleScenario.node[31].veinsmobility 	totalTime 	601
scalar RSUExampleScenario.node[31].veinsmobility 	stopTime 	658
scalar RSUExampleScenario.node[31].veinsmobility 	minSpeed 	0
scalar RSUExampleScenario.node[31].veinsmobility 	maxSpeed 	16.653660952598
scalar RSUExampleScenario.node[31].veinsmobility 	totalDistance 	3253.8052858625
scalar RSUExampleScenario.node[31].veinsmobility 	totalCO2Emission 	1173.8527468014
scalar RSUExampleScenario.node[30].nic.phy80211p 	busyTime 	9.5206611570248e-06
scalar RSUExampleScenario.node[30].nic.mac1609_4 	ReceivedUnicastPackets 	0
scalar RSUExampleScenario.node[30].nic.mac1609_4 	ReceivedBroadcasts 	17
scalar RSUExampleScenario.node[30].nic.mac1609_4 	SentPackets 	1
scalar RSUExampleScenario.node[30].nic.mac1609_4 	SNIRLostPackets 	13
scalar RSUExampleScenario.node[30].nic.mac1609_4 	RXTXLostPackets 	1
scalar RSUExampleScenario.node[30].nic.mac1609_4 	TotalLostPackets 	14
scalar RSUExampleScenario.node[30].nic.mac1609_4 	DroppedPacketsInMac 	0
scalar RSUExampleScenario.node[30].nic.mac1609_4 	TooLittleTime 	0
scalar RSUExampleScenario.node[30].nic.mac1609_4 	TimesIntoBackoff 	2
scalar RSUExampleScenario.node[30].nic.mac1609_4 	SlotsBackoff 	7
scalar RSUExampleScenario.node[30].nic.mac1609_4 	NumInternalContention 	0
scalar RSUExampleScenario.node[30].nic.mac1609_4 	totalBusyTime 	0.004033156422
scalar RSUExampleScenario.node[30].veinsmobility 	startTime 	55
scalar RSUExampleScenario.node[30].veinsmobility 	totalTime 	604
scalar RSUExampleScenario.node[30].veinsmobility 	stopTime 	660
scalar RSUExampleScenario.node[30].veinsmobility 	minSpeed 	0
scalar RSUExampleScenario.node[30].veinsmobility 	maxSpeed 	16.669662205167
scalar RSUExampleScenario.node[30].veinsmobility 	totalDistance 	3253.3840620292
scalar RSUExampleScenario.node[30].veinsmobility 	totalCO2Emission 	1175.4999283325
scalar RSUExampleScenario.node[53].nic.phy80211p 	busyTime 	6.8940754039497e-06
scalar RSUExampleScenario.node[53].nic.mac1609_4 	ReceivedUnicastPackets 	0
scalar RSUExampleScenario.node[53].nic.mac1609_4 	ReceivedBroadcasts 	13
scalar RSUExampleScenario.node[53].nic.mac1609_4 	SentPackets 	1
scalar RSUExampleScenario.node[53].nic.mac1609_4 	SNIRLostPackets 	7
scalar RSUExampleScenario.node[53].nic.mac1609_4 	RXTXLostPackets 	1
scalar RSUExampleScenario.node[53].nic.mac1609_4 	TotalLostPackets 	8
scalar RSUExampleScenario.node[53].nic.mac1609_4 	DroppedPacketsInMac 	0
scalar RSUExampleScenario.node[53].nic.mac1609_4 	TooLittleTime 	0
scalar RSUExampleScenario.node[53].nic.mac1609_4 	TimesIntoBackoff 	1
scalar RSUExampleScenario.node[53].nic.mac1609_4 	SlotsBackoff 	6
scalar RSUExampleScenario.node[53].nic.mac1609_4 	NumInternalContention 	0
scalar RSUExampleScenario.node[53].nic.mac1609_4 	totalBusyTime 	0.003073
scalar RSUExampleScenario.node[53].veinsmobility 	startTime 	106
scalar RSUExampleScenario.node[53].veinsmobility 	totalTime 	556
scalar RSUExampleScenario.node[53].veinsmobility 	stopTime 	663
scalar RSUExampleScenario.node[53].veinsmobility 	minSpeed 	0
scalar RSUExampleScenario.node[53].veinsmobility 	maxSpeed 	27.773545109285
scalar RSUExampleScenario.node[53].veinsmobility 	totalDistance 	3401.6535816182
scalar RSUExampleScenario.node[53].veinsmobility 	totalCO2Emission 	1364.3202378456
scalar RSUExampleScenario.node[57].nic.phy80211p 	busyTime 	7.3176043557169e-06
scalar RSUExampleScenario.node[57].nic.mac1609_4 	ReceivedUnicastPackets 	0
scalar RSUExampleScenario.node[57].nic.mac1609_4 	ReceivedBroadcasts 	12
scalar RSUExampleScenario.node[57].nic.mac1609_4 	SentPackets 	1
scalar RSUExampleScenario.node[57].nic.mac1609_4 	SNIRLostPackets 	9
scalar RSUExampleScenario.node[57].nic.mac1609_4 	RXTXLostPackets 	0
scalar RSUExampleScenario.node[57].nic.mac1609_4 	TotalLostPackets 	9
scalar RSUExampleScenario.node[57].nic.mac1609_4 	DroppedPacketsInMac 	0
scalar RSUExampleScenario.node[57].nic.mac1609_4 	TooLittleTime 	0
scalar RSUExampleScenario.node[57].nic.mac1609_4 	TimesIntoBackoff 	1
scalar RSUExampleScenario.node[57].nic.mac1609_4 	SlotsBackoff 	5
scalar RSUExampleScenario.node[57].nic.mac1609_4 	NumInternalContention 	0
scalar RSUExampleScenario.node[57].nic.mac1609_4 	totalBusyTime 	0.003073
scalar RSUExampleScenario.node[57].veinsmobility 	startTime 	114
scalar RSUExampleScenario.node[57].veinsmobility 	totalTime 	550
scalar RSUExampleScenario.node[57].veinsmobility 	stopTime 	665
scalar RSUExampleScenario.node[57].veinsmobility 	minSpeed 	0
scalar RSUExampleScenario.node[57].veinsmobility 	maxSpeed 	27.628783331874
scalar RSUExampleScenario.node[57].veinsmobility 	totalDistance 	3402.2999967108
scalar RSUExampleScenario.node[57].veinsmobility 	totalCO2Emission 	1274.2749352797
scalar RSUExampleScenario.node[56].nic.phy80211p 	busyTime 	6.9189189189189e-06
scalar RSUExampleScenario.node[56].nic.mac1609_4 	ReceivedUnicastPackets 	0
scalar RSUExampleScenario.node[56].nic.mac1609_4 	ReceivedBroadcasts 	13
scalar RSUExampleScenario.node[56].nic.mac1609_4 	SentPackets 	1
scalar RSUExampleScenario.node[56].nic.mac1609_4 	SNIRLostPackets 	7
scalar RSUExampleScenario.node[56].nic.mac1609_4 	RXTXLostPackets 	1
scalar RSUExampleScenario.node[56].nic.mac1609_4 	TotalLostPackets 	8
scalar RSUExampleScenario.node[56].nic.mac1609_4 	DroppedPacketsInMac 	0
scalar RSUExampleScenario.node[56].nic.mac1609_4 	TooLittleTime 	0
scalar RSUExampleScenario.node[56].nic.mac1609_4 	TimesIntoBackoff 	1
scalar RSUExampleScenario.node[56].nic.mac1609_4 	SlotsBackoff 	6
scalar RSUExampleScenario.node[56].nic.mac1609_4 	NumInternalContention 	0
scalar RSUExampleScenario.node[56].nic.mac1609_4 	totalBusyTime 	0.003073
scalar RSUExampleScenario.node[56].veinsmobility 	startTime 	112
scalar RSUExampleScenario.node[56].veinsmobility 	totalTime 	554
scalar RSUExampleScenario.node[56].veinsmobility 	stopTime 	667
scalar RSUExampleScenario.node[56].veinsmobility 	minSpeed 	0
scalar RSUExampleScenario.node[56].veinsmobility 	maxSpeed 	27.740849564644
scalar RSUExampleScenario.node[56].veinsmobility 	totalDistance 	3400.7065072437
scalar RSUExampleScenario.node[56].veinsmobility 	totalCO2Emission 	1320.1149901813
scalar RSUExampleScenario.node[52].nic.phy80211p 	busyTime 	7.1111111111111e-06
scalar RSUExampleScenario.node[52].nic.mac1609_4 	ReceivedUnicastPackets 	0
scalar RSUExampleScenario.node[52].nic.mac1609_4 	ReceivedBroadcasts 	13
scalar RSUExampleScenario.node[52].nic.mac1609_4 	SentPackets 	1
scalar RSUExampleScenario.node[52].nic.mac1609_4 	SNIRLostPackets 	8
scalar RSUExampleScenario.node[52].nic.mac1609_4 	RXTXLostPackets 	0
scalar RSUExampleScenario.node[52].nic.mac1609_4 	TotalLostPackets 	8
scalar RSUExampleScenario.node[52].nic.mac1609_4 	DroppedPacketsInMac 	0
scalar RSUExampleScenario.node[52].nic.mac1609_4 	TooLittleTime 	0
scalar RSUExampleScenario.node[52].nic.mac1609_4 	TimesIntoBackoff 	1
scalar RSUExampleScenario.node[52].nic.mac1609_4 	SlotsBackoff 	2
scalar RSUExampleScenario.node[52].nic.mac1609_4 	NumInternalContention 	0
scalar RSUExampleScenario.node[52].nic.mac1609_4 	totalBusyTime 	0.003073
scalar RSUExampleScenario.node[52].veinsmobility 	startTime 	103
scalar RSUExampleScenario.node[52].veinsmobility 	totalTime 	566
scalar RSUExampleScenario.node[52].veinsmobility 	stopTime 	670
scalar RSUExampleScenario.node[52].veinsmobility 	minSpeed 	0
scalar RSUExampleScenario.node[52].veinsmobility 	maxSpeed 	27.725886366488
scalar RSUExampleScenario.node[52].veinsmobility 	totalDistance 	3406.6781678334
scalar RSUExampleScenario.node[52].veinsmobility 	totalCO2Emission 	1369.8228983519
scalar RSUExampleScenario.node[28].nic.phy80211p 	busyTime 	9.2455858747994e-06
scalar RSUExampleScenario.node[28].nic.mac1609_4 	ReceivedUnicastPackets 	0
scalar RSUExampleScenario.node[28].nic.mac1609_4 	ReceivedBroadcasts 	15
scalar RSUExampleScenario.node[28].nic.mac1609_4 	SentPackets 	1
scalar RSUExampleScenario.node[28].nic.mac1609_4 	SNIRLostPackets 	15
scalar RSUExampleScenario.node[28].nic.mac1609_4 	RXTXLostPackets 	1
scalar RSUExampleScenario.node[28].nic.mac1609_4 	TotalLostPackets 	16
scalar RSUExampleScenario.node[28].nic.mac1609_4 	DroppedPacketsInMac 	0
scalar RSUExampleScenario.node[28].nic.mac1609_4 	TooLittleTime 	0
scalar RSUExampleScenario.node[28].nic.mac1609_4 	TimesIntoBackoff 	2
scalar RSUExampleScenario.node[28].nic.mac1609_4 	SlotsBackoff 	2
scalar RSUExampleScenario.node[28].nic.mac1609_4 	NumInternalContention 	0
scalar RSUExampleScenario.node[28].nic.mac1609_4 	totalBusyTime 	0.004033072805
scalar RSUExampleScenario.node[28].veinsmobility 	startTime 	51
scalar RSUExampleScenario.node[28].veinsmobility 	totalTime 	622
scalar RSUExampleScenario.node[28].veinsmobility 	stopTime 	674
scalar RSUExampleScenario.node[28].veinsmobility 	minSpeed 	0
scalar RSUExampleScenario.node[28].veinsmobility 	maxSpeed 	16.665104344543
scalar RSUExampleScenario.node[28].veinsmobility 	totalDistance 	3358.8312893699
scalar RSUExampleScenario.node[28].veinsmobility 	totalCO2Emission 	1193.9560221663
scalar RSUExampleScenario.node[63].nic.phy80211p 	busyTime 	1.0841530054645e-05
scalar RSUExampleScenario.node[63].nic.mac1609_4 	ReceivedUnicastPackets 	0
scalar RSUExampleScenario.node[63].nic.mac1609_4 	ReceivedBroadcasts 	14
scalar RSUExampleScenario.node[63].nic.mac1609_4 	SentPackets 	1
scalar RSUExampleScenario.node[63].nic.mac1609_4 	SNIRLostPackets 	17
scalar RSUExampleScenario.node[63].nic.mac1609_4 	RXTXLostPackets 	0
scalar RSUExampleScenario.node[63].nic.mac1609_4 	TotalLostPackets 	17
scalar RSUExampleScenario.node[63].nic.mac1609_4 	DroppedPacketsInMac 	0
scalar RSUExampleScenario.node[63].nic.mac1609_4 	TooLittleTime 	0
scalar RSUExampleScenario.node[63].nic.mac1609_4 	TimesIntoBackoff 	1
scalar RSUExampleScenario.node[63].nic.mac1609_4 	SlotsBackoff 	1
scalar RSUExampleScenario.node[63].nic.mac1609_4 	NumInternalContention 	0
scalar RSUExampleScenario.node[63].nic.mac1609_4 	totalBusyTime 	0.004225
scalar RSUExampleScenario.node[63].veinsmobility 	startTime 	128
scalar RSUExampleScenario.node[63].veinsmobility 	totalTime 	548
scalar RSUExampleScenario.node[63].veinsmobility 	stopTime 	677
scalar RSUExampleScenario.node[63].veinsmobility 	minSpeed 	0
scalar RSUExampleScenario.node[63].veinsmobility 	maxSpeed 	27.756425421285
scalar RSUExampleScenario.node[63].veinsmobility 	totalDistance 	3411.371551795
scalar RSUExampleScenario.node[63].veinsmobility 	totalCO2Emission 	1344.2457137197
scalar RSUExampleScenario.node[60].nic.phy80211p 	busyTime 	8.6021505376344e-06
scalar RSUExampleScenario.node[60].nic.mac1609_4 	ReceivedUnicastPackets 	0
scalar RSUExampleScenario.node[60].nic.mac1609_4 	ReceivedBroadcasts 	16
scalar RSUExampleScenario.node[60].nic.mac1609_4 	SentPackets 	1
scalar RSUExampleScenario.node[60].nic.mac1609_4 	SNIRLostPackets 	9
scalar RSUExampleScenario.node[60].nic.mac1609_4 	RXTXLostPackets 	0
scalar RSUExampleScenario.node[60].nic.mac1609_4 	TotalLostPackets 	9
scalar RSUExampleScenario.node[60].nic.mac1609_4 	DroppedPacketsInMac 	0
scalar RSUExampleScenario.node[60].nic.mac1609_4 	TooLittleTime 	0
scalar RSUExampleScenario.node[60].nic.mac1609_4 	TimesIntoBackoff 	1
scalar RSUExampleScenario.node[60].nic.mac1609_4 	SlotsBackoff 	5
scalar RSUExampleScenario.node[60].nic.mac1609_4 	NumInternalContention 	0
scalar RSUExampleScenario.node[60].nic.mac1609_4 	totalBusyTime 	0.003649
scalar RSUExampleScenario.node[60].veinsmobility 	startTime 	121
scalar RSUExampleScenario.node[60].veinsmobility 	totalTime 	557
scalar RSUExampleScenario.node[60].veinsmobility 	stopTime 	679
scalar RSUExampleScenario.node[60].veinsmobility 	minSpeed 	0
scalar RSUExampleScenario.node[60].veinsmobility 	maxSpeed 	27.548172512483
scalar RSUExampleScenario.node[60].veinsmobility 	totalDistance 	3396.5728536002
scalar RSUExampleScenario.node[60].veinsmobility 	totalCO2Emission 	1372.3788773421
scalar RSUExampleScenario.node[59].nic.phy80211p 	busyTime 	7.5026642984014e-06
scalar RSUExampleScenario.node[59].nic.mac1609_4 	ReceivedUnicastPackets 	0
scalar RSUExampleScenario.node[59].nic.mac1609_4 	ReceivedBroadcasts 	13
scalar RSUExampleScenario.node[59].nic.mac1609_4 	SentPackets 	1
scalar RSUExampleScenario.node[59].nic.mac1609_4 	SNIRLostPackets 	9
scalar RSUExampleScenario.node[59].nic.mac1609_4 	RXTXLostPackets 	0
scalar RSUExampleScenario.node[59].nic.mac1609_4 	TotalLostPackets 	9
scalar RSUExampleScenario.node[59].nic.mac1609_4 	DroppedPacketsInMac 	0
scalar RSUExampleScenario.node[59].nic.mac1609_4 	TooLittleTime 	0
scalar RSUExampleScenario.node[59].nic.mac1609_4 	TimesIntoBackoff 	1
scalar RSUExampleScenario.node[59].nic.mac1609_4 	SlotsBackoff 	6
scalar RSUExampleScenario.node[59].nic.mac1609_4 	NumInternalContention 	0
scalar RSUExampleScenario.node[59].nic.mac1609_4 	totalBusyTime 	0.003073
scalar RSUExampleScenario.node[59].veinsmobility 	startTime 	119
scalar RSUExampleScenario.node[59].veinsmobility 	totalTime 	562
scalar RSUExampleScenario.node[59].veinsmobility 	stopTime 	682
scalar RSUExampleScenario.node[59].veinsmobility 	minSpeed 	0
scalar RSUExampleScenario.node[59].veinsmobility 	maxSpeed 	27.73783998373
scalar RSUExampleScenario.node[59].veinsmobility 	totalDistance 	3405.7625893055
scalar RSUExampleScenario.node[59].veinsmobility 	totalCO2Emission 	1362.0258551898
scalar RSUExampleScenario.node[32].nic.phy80211p 	busyTime 	7.667731629393e-06
scalar RSUExampleScenario.node[32].nic.mac1609_4 	ReceivedUnicastPackets 	0
scalar RSUExampleScenario.node[32].nic.mac1609_4 	ReceivedBroadcasts 	15
scalar RSUExampleScenario.node[32].nic.mac1609_4 	SentPackets 	1
scalar RSUExampleScenario.node[32].nic.mac1609_4 	SNIRLostPackets 	10
scalar RSUExampleScenario.node[32].nic.mac1609_4 	RXTXLostPackets 	2
scalar RSUExampleScenario.node[32].nic.mac1609_4 	TotalLostPackets 	12
scalar RSUExampleScenario.node[32].nic.mac1609_4 	DroppedPacketsInMac 	0
scalar RSUExampleScenario.node[32].nic.mac1609_4 	TooLittleTime 	0
scalar RSUExampleScenario.node[32].nic.mac1609_4 	TimesIntoBackoff 	2
scalar RSUExampleScenario.node[32].nic.mac1609_4 	SlotsBackoff 	5
scalar RSUExampleScenario.node[32].nic.mac1609_4 	NumInternalContention 	0
scalar RSUExampleScenario.node[32].nic.mac1609_4 	totalBusyTime 	0.003649062628
scalar RSUExampleScenario.node[32].veinsmobility 	startTime 	58
scalar RSUExampleScenario.node[32].veinsmobility 	totalTime 	625
scalar RSUExampleScenario.node[32].veinsmobility 	stopTime 	684
scalar RSUExampleScenario.node[32].veinsmobility 	minSpeed 	0
scalar RSUExampleScenario.node[32].veinsmobility 	maxSpeed 	16.663984675081
scalar RSUExampleScenario.node[32].veinsmobility 	totalDistance 	3256.1305209193
scalar RSUExampleScenario.node[32].veinsmobility 	totalCO2Emission 	1224.7746478198
scalar RSUExampleScenario.node[58].nic.phy80211p 	busyTime 	7.0861159929701e-06
scalar RSUExampleScenario.node[58].nic.mac1609_4 	ReceivedUnicastPackets 	0
scalar RSUExampleScenario.node[58].nic.mac1609_4 	ReceivedBroadcasts 	13
scalar RSUExampleScenario.node[58].nic.mac1609_4 	SentPackets 	1
scalar RSUExampleScenario.node[58].nic.mac1609_4 	SNIRLostPackets 	8
scalar RSUExampleScenario.node[58].nic.mac1609_4 	RXTXLostPackets 	0
scalar RSUExampleScenario.node[58].nic.mac1609_4 	TotalLostPackets 	8
scalar RSUExampleScenario.node[58].nic.mac1609_4 	DroppedPacketsInMac 	0
scalar RSUExampleScenario.node[58].nic.mac1609_4 	TooLittleTime 	0
scalar RSUExampleScenario.node[58].nic.mac1609_4 	TimesIntoBackoff 	1
scalar RSUExampleScenario.node[58].nic.mac1609_4 	SlotsBackoff 	0
scalar RSUExampleScenario.node[58].nic.mac1609_4 	NumInternalContention 	0
scalar RSUExampleScenario.node[58].nic.mac1609_4 	totalBusyTime 	0.003073
scalar RSUExampleScenario.node[58].veinsmobility 	startTime 	117
scalar RSUExampleScenario.node[58].veinsmobility 	totalTime 	568
scalar RSUExampleScenario.node[58].veinsmobility 	stopTime 	686
scalar RSUExampleScenario.node[58].veinsmobility 	minSpeed 	0
scalar RSUExampleScenario.node[58].veinsmobility 	maxSpeed 	27.760659927167
scalar RSUExampleScenario.node[58].veinsmobility 	totalDistance 	3396.4803539441
scalar RSUExampleScenario.node[58].veinsmobility 	totalCO2Emission 	1368.3270266866
scalar RSUExampleScenario.node[65].nic.phy80211p 	busyTime 	1.3122302158273e-05
scalar RSUExampleScenario.node[65].nic.mac1609_4 	ReceivedUnicastPackets 	0
scalar RSUExampleScenario.node[65].nic.mac1609_4 	ReceivedBroadcasts 	10
scalar RSUExampleScenario.node[65].nic.mac1609_4 	SentPackets 	1
scalar RSUExampleScenario.node[65].nic.mac1609_4 	SNIRLostPackets 	28
scalar RSUExampleScenario.node[65].nic.mac1609_4 	RXTXLostPackets 	1
scalar RSUExampleScenario.node[65].nic.mac1609_4 	TotalLostPackets 	29
scalar RSUExampleScenario.node[65].nic.mac1609_4 	DroppedPacketsInMac 	0
scalar RSUExampleScenario.node[65].nic.mac1609_4 	TooLittleTime 	0
scalar RSUExampleScenario.node[65].nic.mac1609_4 	TimesIntoBackoff 	2
scalar RSUExampleScenario.node[65].nic.mac1609_4 	SlotsBackoff 	2
scalar RSUExampleScenario.node[65].nic.mac1609_4 	NumInternalContention 	0
scalar RSUExampleScenario.node[65].nic.mac1609_4 	totalBusyTime 	0.004801
scalar RSUExampleScenario.node[65].veinsmobility 	startTime 	133
scalar RSUExampleScenario.node[65].veinsmobility 	totalTime 	555
scalar RSUExampleScenario.node[65].veinsmobility 	stopTime 	689
scalar RSUExampleScenario.node[65].veinsmobility 	minSpeed 	0
scalar RSUExampleScenario.node[65].veinsmobility 	maxSpeed 	27.69626094522
scalar RSUExampleScenario.node[65].veinsmobility 	totalDistance 	3415.4947303398
scalar RSUExampleScenario.node[65].veinsmobility 	totalCO2Emission 	1328.9262582149
scalar RSUExampleScenario.node[34].nic.phy80211p 	busyTime 	7.3026941362916e-06
scalar RSUExampleScenario.node[34].nic.mac1609_4 	ReceivedUnicastPackets 	0
scalar RSUExampleScenario.node[34].nic.mac1609_4 	ReceivedBroadcasts 	14
scalar RSUExampleScenario.node[34].nic.mac1609_4 	SentPackets 	1
scalar RSUExampleScenario.node[34].nic.mac1609_4 	SNIRLostPackets 	10
scalar RSUExampleScenario.node[34].nic.mac1609_4 	RXTXLostPackets 	3
scalar RSUExampleScenario.node[34].nic.mac1609_4 	TotalLostPackets 	13
scalar RSUExampleScenario.node[34].nic.mac1609_4 	DroppedPacketsInMac 	0
scalar RSUExampleScenario.node[34].nic.mac1609_4 	TooLittleTime 	0
scalar RSUExampleScenario.node[34].nic.mac1609_4 	TimesIntoBackoff 	1
scalar RSUExampleScenario.node[34].nic.mac1609_4 	SlotsBackoff 	7
scalar RSUExampleScenario.node[34].nic.mac1609_4 	NumInternalContention 	0
scalar RSUExampleScenario.node[34].nic.mac1609_4 	totalBusyTime 	0.003649162371
scalar RSUExampleScenario.node[34].veinsmobility 	startTime 	62
scalar RSUExampleScenario.node[34].veinsmobility 	totalTime 	630
scalar RSUExampleScenario.node[34].veinsmobility 	stopTime 	693
scalar RSUExampleScenario.node[34].veinsmobility 	minSpeed 	0
scalar RSUExampleScenario.node[34].veinsmobility 	maxSpeed 	16.659455834022
scalar RSUExampleScenario.node[34].veinsmobility 	totalDistance 	3252.5289116961
scalar RSUExampleScenario.node[34].veinsmobility 	totalCO2Emission 	1200.0710622157
scalar RSUExampleScenario.node[62].nic.phy80211p 	busyTime 	9.7003484320558e-06
scalar RSUExampleScenario.node[62].nic.mac1609_4 	ReceivedUnicastPackets 	0
scalar RSUExampleScenario.node[62].nic.mac1609_4 	ReceivedBroadcasts 	13
scalar RSUExampleScenario.node[62].nic.mac1609_4 	SentPackets 	1
scalar RSUExampleScenario.node[62].nic.mac1609_4 	SNIRLostPackets 	16
scalar RSUExampleScenario.node[62].nic.mac1609_4 	RXTXLostPackets 	1
scalar RSUExampleScenario.node[62].nic.mac1609_4 	TotalLostPackets 	17
scalar RSUExampleScenario.node[62].nic.mac1609_4 	DroppedPacketsInMac 	0
scalar RSUExampleScenario.node[62].nic.mac1609_4 	TooLittleTime 	0
scalar RSUExampleScenario.node[62].nic.mac1609_4 	TimesIntoBackoff 	1
scalar RSUExampleScenario.node[62].nic.mac1609_4 	SlotsBackoff 	5
scalar RSUExampleScenario.node[62].nic.mac1609_4 	NumInternalContention 	0
scalar RSUExampleScenario.node[62].nic.mac1609_4 	totalBusyTime 	0.004225
scalar RSUExampleScenario.node[62].veinsmobility 	startTime 	126
scalar RSUExampleScenario.node[62].veinsmobility 	totalTime 	573
scalar RSUExampleScenario.node[62].veinsmobility 	stopTime 	700
scalar RSUExampleScenario.node[62].veinsmobility 	minSpeed 	0
scalar RSUExampleScenario.node[62].veinsmobility 	maxSpeed 	27.452499165913
scalar RSUExampleScenario.node[62].veinsmobility 	totalDistance 	3410.6715296055
scalar RSUExampleScenario.node[62].veinsmobility 	totalCO2Emission 	1453.6129403299
scalar RSUExampleScenario.node[73].nic.phy80211p 	busyTime 	1.2892921960073e-05
scalar RSUExampleScenario.node[73].nic.mac1609_4 	ReceivedUnicastPackets 	0
scalar RSUExampleScenario.node[73].nic.mac1609_4 	ReceivedBroadcasts 	19
scalar RSUExampleScenario.node[73].nic.mac1609_4 	SentPackets 	1
scalar RSUExampleScenario.node[73].nic.mac1609_4 	SNIRLostPackets 	18
scalar RSUExampleScenario.node[73].nic.mac1609_4 	RXTXLostPackets 	0
scalar RSUExampleScenario.node[73].nic.mac1609_4 	TotalLostPackets 	18
scalar RSUExampleScenario.node[73].nic.mac1609_4 	DroppedPacketsInMac 	0
scalar RSUExampleScenario.node[73].nic.mac1609_4 	TooLittleTime 	0
scalar RSUExampleScenario.node[73].nic.mac1609_4 	TimesIntoBackoff 	1
scalar RSUExampleScenario.node[73].nic.mac1609_4 	SlotsBackoff 	7
scalar RSUExampleScenario.node[73].nic.mac1609_4 	NumInternalContention 	0
scalar RSUExampleScenario.node[73].nic.mac1609_4 	totalBusyTime 	0.005185
scalar RSUExampleScenario.node[73].veinsmobility 	startTime 	151
scalar RSUExampleScenario.node[73].veinsmobility 	totalTime 	550
scalar RSUExampleScenario.node[73].veinsmobility 	stopTime 	702
scalar RSUExampleScenario.node[73].veinsmobility 	minSpeed 	0
scalar RSUExampleScenario.node[73].veinsmobility 	maxSpeed 	27.766424317043
scalar RSUExampleScenario.node[73].veinsmobility 	totalDistance 	3397.0034786394
scalar RSUExampleScenario.node[73].veinsmobility 	totalCO2Emission 	1361.2062487189
scalar RSUExampleScenario.node[66].nic.phy80211p 	busyTime 	1.3473684210526e-05
scalar RSUExampleScenario.node[66].nic.mac1609_4 	ReceivedUnicastPackets 	0
scalar RSUExampleScenario.node[66].nic.mac1609_4 	ReceivedBroadcasts 	8
scalar RSUExampleScenario.node[66].nic.mac1609_4 	SentPackets 	1
scalar RSUExampleScenario.node[66].nic.mac1609_4 	SNIRLostPackets 	32
scalar RSUExampleScenario.node[66].nic.mac1609_4 	RXTXLostPackets 	1
scalar RSUExampleScenario.node[66].nic.mac1609_4 	TotalLostPackets 	33
scalar RSUExampleScenario.node[66].nic.mac1609_4 	DroppedPacketsInMac 	0
scalar RSUExampleScenario.node[66].nic.mac1609_4 	TooLittleTime 	0
scalar RSUExampleScenario.node[66].nic.mac1609_4 	TimesIntoBackoff 	2
scalar RSUExampleScenario.node[66].nic.mac1609_4 	SlotsBackoff 	8
scalar RSUExampleScenario.node[66].nic.mac1609_4 	NumInternalContention 	0
scalar RSUExampleScenario.node[66].nic.mac1609_4 	totalBusyTime 	0.004801
scalar RSUExampleScenario.node[66].veinsmobility 	startTime 	135
scalar RSUExampleScenario.node[66].veinsmobility 	totalTime 	569
scalar RSUExampleScenario.node[66].veinsmobility 	stopTime 	705
scalar RSUExampleScenario.node[66].veinsmobility 	minSpeed 	0
scalar RSUExampleScenario.node[66].veinsmobility 	maxSpeed 	27.595291666072
scalar RSUExampleScenario.node[66].veinsmobility 	totalDistance 	3404.1245103639
scalar RSUExampleScenario.node[66].veinsmobility 	totalCO2Emission 	1397.5555010003
scalar RSUExampleScenario.node[37].nic.phy80211p 	busyTime 	7.4882995319813e-06
scalar RSUExampleScenario.node[37].nic.mac1609_4 	ReceivedUnicastPackets 	0
scalar RSUExampleScenario.node[37].nic.mac1609_4 	ReceivedBroadcasts 	14
scalar RSUExampleScenario.node[37].nic.mac1609_4 	SentPackets 	1
scalar RSUExampleScenario.node[37].nic.mac1609_4 	SNIRLostPackets 	11
scalar RSUExampleScenario.node[37].nic.mac1609_4 	RXTXLostPackets 	1
scalar RSUExampleScenario.node[37].nic.mac1609_4 	TotalLostPackets 	12
scalar RSUExampleScenario.node[37].nic.mac1609_4 	DroppedPacketsInMac 	0
scalar RSUExampleScenario.node[37].nic.mac1609_4 	TooLittleTime 	0
scalar RSUExampleScenario.node[37].nic.mac1609_4 	TimesIntoBackoff 	2
scalar RSUExampleScenario.node[37].nic.mac1609_4 	SlotsBackoff 	13
scalar RSUExampleScenario.node[37].nic.mac1609_4 	NumInternalContention 	0
scalar RSUExampleScenario.node[37].nic.mac1609_4 	totalBusyTime 	0.00364909693
scalar RSUExampleScenario.node[37].veinsmobility 	startTime 	68
scalar RSUExampleScenario.node[37].veinsmobility 	totalTime 	640
scalar RSUExampleScenario.node[37].veinsmobility 	stopTime 	709
scalar RSUExampleScenario.node[37].veinsmobility 	minSpeed 	0
scalar RSUExampleScenario.node[37].veinsmobility 	maxSpeed 	16.665396585083
scalar RSUExampleScenario.node[37].veinsmobility 	totalDistance 	3252.7090707831
scalar RSUExampleScenario.node[37].veinsmobility 	totalCO2Emission 	1192.2148115529
scalar RSUExampleScenario.node[79].nic.phy80211p 	busyTime 	1.5304347826087e-05
scalar RSUExampleScenario.node[79].nic.mac1609_4 	ReceivedUnicastPackets 	0
scalar RSUExampleScenario.node[79].nic.mac1609_4 	ReceivedBroadcasts 	26
scalar RSUExampleScenario.node[79].nic.mac1609_4 	SentPackets 	1
scalar RSUExampleScenario.node[79].nic.mac1609_4 	SNIRLostPackets 	18
scalar RSUExampleScenario.node[79].nic.mac1609_4 	RXTXLostPackets 	1
scalar RSUExampleScenario.node[79].nic.mac1609_4 	TotalLostPackets 	19
scalar RSUExampleScenario.node[79].nic.mac1609_4 	DroppedPacketsInMac 	0
scalar RSUExampleScenario.node[79].nic.mac1609_4 	TooLittleTime 	0
scalar RSUExampleScenario.node[79].nic.mac1609_4 	TimesIntoBackoff 	1
scalar RSUExampleScenario.node[79].nic.mac1609_4 	SlotsBackoff 	4
scalar RSUExampleScenario.node[79].nic.mac1609_4 	NumInternalContention 	0
scalar RSUExampleScenario.node[79].nic.mac1609_4 	totalBusyTime 	0.006721
scalar RSUExampleScenario.node[79].veinsmobility 	startTime 	165
scalar RSUExampleScenario.node[79].veinsmobility 	totalTime 	551
scalar RSUExampleScenario.node[79].veinsmobility 	stopTime 	717
scalar RSUExampleScenario.node[79].veinsmobility 	minSpeed 	0
scalar RSUExampleScenario.node[79].veinsmobility 	maxSpeed 	27.746720668515
scalar RSUExampleScenario.node[79].veinsmobility 	totalDistance 	3399.0295126467
scalar RSUExampleScenario.node[79].veinsmobility 	totalCO2Emission 	1289.7607069
scalar RSUExampleScenario.node[67].nic.phy80211p 	busyTime 	1.319587628866e-05
scalar RSUExampleScenario.node[67].nic.mac1609_4 	ReceivedUnicastPackets 	0
scalar RSUExampleScenario.node[67].nic.mac1609_4 	ReceivedBroadcasts 	11
scalar RSUExampleScenario.node[67].nic.mac1609_4 	SentPackets 	1
scalar RSUExampleScenario.node[67].nic.mac1609_4 	SNIRLostPackets 	29
scalar RSUExampleScenario.node[67].nic.mac1609_4 	RXTXLostPackets 	1
scalar RSUExampleScenario.node[67].nic.mac1609_4 	TotalLostPackets 	30
scalar RSUExampleScenario.node[67].nic.mac1609_4 	DroppedPacketsInMac 	0
scalar RSUExampleScenario.node[67].nic.mac1609_4 	TooLittleTime 	0
scalar RSUExampleScenario.node[67].nic.mac1609_4 	TimesIntoBackoff 	2
scalar RSUExampleScenario.node[67].nic.mac1609_4 	SlotsBackoff 	5
scalar RSUExampleScenario.node[67].nic.mac1609_4 	NumInternalContention 	0
scalar RSUExampleScenario.node[67].nic.mac1609_4 	totalBusyTime 	0.004801
scalar RSUExampleScenario.node[67].veinsmobility 	startTime 	138
scalar RSUExampleScenario.node[67].veinsmobility 	totalTime 	581
scalar RSUExampleScenario.node[67].veinsmobility 	stopTime 	720
scalar RSUExampleScenario.node[67].veinsmobility 	minSpeed 	0
scalar RSUExampleScenario.node[67].veinsmobility 	maxSpeed 	27.729583028629
scalar RSUExampleScenario.node[67].veinsmobility 	totalDistance 	3402.6880706362
scalar RSUExampleScenario.node[67].veinsmobility 	totalCO2Emission 	1473.8279511125
scalar RSUExampleScenario.node[42].nic.phy80211p 	busyTime 	7.4534161490683e-06
scalar RSUExampleScenario.node[42].nic.mac1609_4 	ReceivedUnicastPackets 	0
scalar RSUExampleScenario.node[42].nic.mac1609_4 	ReceivedBroadcasts 	14
scalar RSUExampleScenario.node[42].nic.mac1609_4 	SentPackets 	1
scalar RSUExampleScenario.node[42].nic.mac1609_4 	SNIRLostPackets 	11
scalar RSUExampleScenario.node[42].nic.mac1609_4 	RXTXLostPackets 	3
scalar RSUExampleScenario.node[42].nic.mac1609_4 	TotalLostPackets 	14
scalar RSUExampleScenario.node[42].nic.mac1609_4 	DroppedPacketsInMac 	0
scalar RSUExampleScenario.node[42].nic.mac1609_4 	TooLittleTime 	0
scalar RSUExampleScenario.node[42].nic.mac1609_4 	TimesIntoBackoff 	2
scalar RSUExampleScenario.node[42].nic.mac1609_4 	SlotsBackoff 	2
scalar RSUExampleScenario.node[42].nic.mac1609_4 	NumInternalContention 	0
scalar RSUExampleScenario.node[42].nic.mac1609_4 	totalBusyTime 	0.00384117545
scalar RSUExampleScenario.node[42].veinsmobility 	startTime 	78
scalar RSUExampleScenario.node[42].veinsmobility 	totalTime 	643
scalar RSUExampleScenario.node[42].veinsmobility 	stopTime 	722
scalar RSUExampleScenario.node[42].veinsmobility 	minSpeed 	0
scalar RSUExampleScenario.node[42].veinsmobility 	maxSpeed 	16.666663062368
scalar RSUExampleScenario.node[42].veinsmobility 	totalDistance 	3248.4301832976
scalar RSUExampleScenario.node[42].veinsmobility 	totalCO2Emission 	1121.2655035395
scalar RSUExampleScenario.node[61].nic.phy80211p 	busyTime 	8.9450915141431e-06
scalar RSUExampleScenario.node[61].nic.mac1609_4 	ReceivedUnicastPackets 	0
scalar RSUExampleScenario.node[61].nic.mac1609_4 	ReceivedBroadcasts 	15
scalar RSUExampleScenario.node[61].nic.mac1609_4 	SentPackets 	1
scalar RSUExampleScenario.node[61].nic.mac1609_4 	SNIRLostPackets 	13
scalar RSUExampleScenario.node[61].nic.mac1609_4 	RXTXLostPackets 	0
scalar RSUExampleScenario.node[61].nic.mac1609_4 	TotalLostPackets 	13
scalar RSUExampleScenario.node[61].nic.mac1609_4 	DroppedPacketsInMac 	0
scalar RSUExampleScenario.node[61].nic.mac1609_4 	TooLittleTime 	0
scalar RSUExampleScenario.node[61].nic.mac1609_4 	TimesIntoBackoff 	1
scalar RSUExampleScenario.node[61].nic.mac1609_4 	SlotsBackoff 	1
scalar RSUExampleScenario.node[61].nic.mac1609_4 	NumInternalContention 	0
scalar RSUExampleScenario.node[61].nic.mac1609_4 	totalBusyTime 	0.003841
scalar RSUExampleScenario.node[61].veinsmobility 	startTime 	124
scalar RSUExampleScenario.node[61].veinsmobility 	totalTime 	600
scalar RSUExampleScenario.node[61].veinsmobility 	stopTime 	725
scalar RSUExampleScenario.node[61].veinsmobility 	minSpeed 	0
scalar RSUExampleScenario.node[61].veinsmobility 	maxSpeed 	27.628936213823
scalar RSUExampleScenario.node[61].veinsmobility 	totalDistance 	3409.110409099
scalar RSUExampleScenario.node[61].veinsmobility 	totalCO2Emission 	1478.3623319083
scalar RSUExampleScenario.node[43].nic.phy80211p 	busyTime 	8.3091190108192e-06
scalar RSUExampleScenario.node[43].nic.mac1609_4 	ReceivedUnicastPackets 	0
scalar RSUExampleScenario.node[43].nic.mac1609_4 	ReceivedBroadcasts 	14
scalar RSUExampleScenario.node[43].nic.mac1609_4 	SentPackets 	1
scalar RSUExampleScenario.node[43].nic.mac1609_4 	SNIRLostPackets 	14
scalar RSUExampleScenario.node[43].nic.mac1609_4 	RXTXLostPackets 	0
scalar RSUExampleScenario.node[43].nic.mac1609_4 	TotalLostPackets 	14
scalar RSUExampleScenario.node[43].nic.mac1609_4 	DroppedPacketsInMac 	0
scalar RSUExampleScenario.node[43].nic.mac1609_4 	TooLittleTime 	0
scalar RSUExampleScenario.node[43].nic.mac1609_4 	TimesIntoBackoff 	2
scalar RSUExampleScenario.node[43].nic.mac1609_4 	SlotsBackoff 	0
scalar RSUExampleScenario.node[43].nic.mac1609_4 	NumInternalContention 	0
scalar RSUExampleScenario.node[43].nic.mac1609_4 	totalBusyTime 	0.003841174164
scalar RSUExampleScenario.node[43].veinsmobility 	startTime 	80
scalar RSUExampleScenario.node[43].veinsmobility 	totalTime 	646
scalar RSUExampleScenario.node[43].veinsmobility 	stopTime 	727
scalar RSUExampleScenario.node[43].veinsmobility 	minSpeed 	0
scalar RSUExampleScenario.node[43].veinsmobility 	maxSpeed 	16.664668695549
scalar RSUExampleScenario.node[43].veinsmobility 	totalDistance 	3252.3690370205
scalar RSUExampleScenario.node[43].veinsmobility 	totalCO2Emission 	1113.8415888374
scalar RSUExampleScenario.node[35].nic.phy80211p 	busyTime 	7.5067669172932e-06
scalar RSUExampleScenario.node[35].nic.mac1609_4 	ReceivedUnicastPackets 	0
scalar RSUExampleScenario.node[35].nic.mac1609_4 	ReceivedBroadcasts 	13
scalar RSUExampleScenario.node[35].nic.mac1609_4 	SentPackets 	1
scalar RSUExampleScenario.node[35].nic.mac1609_4 	SNIRLostPackets 	13
scalar RSUExampleScenario.node[35].nic.mac1609_4 	RXTXLostPackets 	0
scalar RSUExampleScenario.node[35].nic.mac1609_4 	TotalLostPackets 	13
scalar RSUExampleScenario.node[35].nic.mac1609_4 	DroppedPacketsInMac 	0
scalar RSUExampleScenario.node[35].nic.mac1609_4 	TooLittleTime 	0
scalar RSUExampleScenario.node[35].nic.mac1609_4 	TimesIntoBackoff 	2
scalar RSUExampleScenario.node[35].nic.mac1609_4 	SlotsBackoff 	11
scalar RSUExampleScenario.node[35].nic.mac1609_4 	NumInternalContention 	0
scalar RSUExampleScenario.node[35].nic.mac1609_4 	totalBusyTime 	0.003649150262
scalar RSUExampleScenario.node[35].veinsmobility 	startTime 	64
scalar RSUExampleScenario.node[35].veinsmobility 	totalTime 	664
scalar RSUExampleScenario.node[35].veinsmobility 	stopTime 	729
scalar RSUExampleScenario.node[35].veinsmobility 	minSpeed 	0
scalar RSUExampleScenario.node[35].veinsmobility 	maxSpeed 	16.657620351464
scalar RSUExampleScenario.node[35].veinsmobility 	totalDistance 	3249.8445682116
scalar RSUExampleScenario.node[35].veinsmobility 	totalCO2Emission 	1221.9426531109
scalar RSUExampleScenario.node[68].nic.phy80211p 	busyTime 	1.3969543147208e-05
scalar RSUExampleScenario.node[68].nic.mac1609_4 	ReceivedUnicastPackets 	0
scalar RSUExampleScenario.node[68].nic.mac1609_4 	ReceivedBroadcasts 	17
scalar RSUExampleScenario.node[68].nic.mac1609_4 	SentPackets 	1
scalar RSUExampleScenario.node[68].nic.mac1609_4 	SNIRLostPackets 	26
scalar RSUExampleScenario.node[68].nic.mac1609_4 	RXTXLostPackets 	1
scalar RSUExampleScenario.node[68].nic.mac1609_4 	TotalLostPackets 	27
scalar RSUExampleScenario.node[68].nic.mac1609_4 	DroppedPacketsInMac 	0
scalar RSUExampleScenario.node[68].nic.mac1609_4 	TooLittleTime 	0
scalar RSUExampleScenario.node[68].nic.mac1609_4 	TimesIntoBackoff 	2
scalar RSUExampleScenario.node[68].nic.mac1609_4 	SlotsBackoff 	5
scalar RSUExampleScenario.node[68].nic.mac1609_4 	NumInternalContention 	0
scalar RSUExampleScenario.node[68].nic.mac1609_4 	totalBusyTime 	0.005377001054
scalar RSUExampleScenario.node[68].veinsmobility 	startTime 	140
scalar RSUExampleScenario.node[68].veinsmobility 	totalTime 	590
scalar RSUExampleScenario.node[68].veinsmobility 	stopTime 	731
scalar RSUExampleScenario.node[68].veinsmobility 	minSpeed 	0
scalar RSUExampleScenario.node[68].veinsmobility 	maxSpeed 	26.788498579213
scalar RSUExampleScenario.node[68].veinsmobility 	totalDistance 	3396.592397576
scalar RSUExampleScenario.node[68].veinsmobility 	totalCO2Emission 	1351.8555091316
scalar RSUExampleScenario.node[36].nic.phy80211p 	busyTime 	7.4730538922156e-06
scalar RSUExampleScenario.node[36].nic.mac1609_4 	ReceivedUnicastPackets 	0
scalar RSUExampleScenario.node[36].nic.mac1609_4 	ReceivedBroadcasts 	14
scalar RSUExampleScenario.node[36].nic.mac1609_4 	SentPackets 	1
scalar RSUExampleScenario.node[36].nic.mac1609_4 	SNIRLostPackets 	12
scalar RSUExampleScenario.node[36].nic.mac1609_4 	RXTXLostPackets 	0
scalar RSUExampleScenario.node[36].nic.mac1609_4 	TotalLostPackets 	12
scalar RSUExampleScenario.node[36].nic.mac1609_4 	DroppedPacketsInMac 	0
scalar RSUExampleScenario.node[36].nic.mac1609_4 	TooLittleTime 	0
scalar RSUExampleScenario.node[36].nic.mac1609_4 	TimesIntoBackoff 	2
scalar RSUExampleScenario.node[36].nic.mac1609_4 	SlotsBackoff 	3
scalar RSUExampleScenario.node[36].nic.mac1609_4 	NumInternalContention 	0
scalar RSUExampleScenario.node[36].nic.mac1609_4 	totalBusyTime 	0.003649208615
scalar RSUExampleScenario.node[36].veinsmobility 	startTime 	66
scalar RSUExampleScenario.node[36].veinsmobility 	totalTime 	667
scalar RSUExampleScenario.node[36].veinsmobility 	stopTime 	734
scalar RSUExampleScenario.node[36].veinsmobility 	minSpeed 	0
scalar RSUExampleScenario.node[36].veinsmobility 	maxSpeed 	16.66903800766
scalar RSUExampleScenario.node[36].veinsmobility 	totalDistance 	3252.2839813468
scalar RSUExampleScenario.node[36].veinsmobility 	totalCO2Emission 	1195.9790496276
scalar RSUExampleScenario.node[38].nic.phy80211p 	busyTime 	7.4954954954955e-06
scalar RSUExampleScenario.node[38].nic.mac1609_4 	ReceivedUnicastPackets 	0
scalar RSUExampleScenario.node[38].nic.mac1609_4 	ReceivedBroadcasts 	14
scalar RSUExampleScenario.node[38].nic.mac1609_4 	SentPackets 	1
scalar RSUExampleScenario.node[38].nic.mac1609_4 	SNIRLostPackets 	12
scalar RSUExampleScenario.node[38].nic.mac1609_4 	RXTXLostPackets 	0
scalar RSUExampleScenario.node[38].nic.mac1609_4 	TotalLostPackets 	12
scalar RSUExampleScenario.node[38].nic.mac1609_4 	DroppedPacketsInMac 	0
scalar RSUExampleScenario.node[38].nic.mac1609_4 	TooLittleTime 	0
scalar RSUExampleScenario.node[38].nic.mac1609_4 	TimesIntoBackoff 	1
scalar RSUExampleScenario.node[38].nic.mac1609_4 	SlotsBackoff 	3
scalar RSUExampleScenario.node[38].nic.mac1609_4 	NumInternalContention 	0
scalar RSUExampleScenario.node[38].nic.mac1609_4 	totalBusyTime 	0.003649144787
scalar RSUExampleScenario.node[38].veinsmobility 	startTime 	70
scalar RSUExampleScenario.node[38].veinsmobility 	totalTime 	665
scalar RSUExampleScenario.node[38].veinsmobility 	stopTime 	736
scalar RSUExampleScenario.node[38].veinsmobility 	minSpeed 	0
scalar RSUExampleScenario.node[38].veinsmobility 	maxSpeed 	16.630757220397
scalar RSUExampleScenario.node[38].veinsmobility 	totalDistance 	3251.0031671829
scalar RSUExampleScenario.node[38].veinsmobility 	totalCO2Emission 	1211.5243305094
scalar RSUExampleScenario.node[64].nic.phy80211p 	busyTime 	1.0438220757825e-05
[...]
scalar RSUExampleScenario.node[388].veinsmobility 	maxSpeed 	27.756036736876
scalar RSUExampleScenario.node[388].veinsmobility 	totalDistance 	3400.0997996865
scalar RSUExampleScenario.node[388].veinsmobility 	totalCO2Emission 	1145.0492814069
scalar RSUExampleScenario.node[369].nic.phy80211p 	busyTime 	5.8715596330275e-06
scalar RSUExampleScenario.node[369].nic.mac1609_4 	ReceivedUnicastPackets 	0
scalar RSUExampleScenario.node[369].nic.mac1609_4 	ReceivedBroadcasts 	16
scalar RSUExampleScenario.node[369].nic.mac1609_4 	SentPackets 	1
scalar RSUExampleScenario.node[369].nic.mac1609_4 	SNIRLostPackets 	4
scalar RSUExampleScenario.node[369].nic.mac1609_4 	RXTXLostPackets 	2
scalar RSUExampleScenario.node[369].nic.mac1609_4 	TotalLostPackets 	6
scalar RSUExampleScenario.node[369].nic.mac1609_4 	DroppedPacketsInMac 	0
scalar RSUExampleScenario.node[369].nic.mac1609_4 	TooLittleTime 	0
scalar RSUExampleScenario.node[369].nic.mac1609_4 	TimesIntoBackoff 	2
scalar RSUExampleScenario.node[369].nic.mac1609_4 	SlotsBackoff 	1
scalar RSUExampleScenario.node[369].nic.mac1609_4 	NumInternalContention 	0
scalar RSUExampleScenario.node[369].nic.mac1609_4 	totalBusyTime 	0.003457221334
scalar RSUExampleScenario.node[369].veinsmobility 	startTime 	1614
scalar RSUExampleScenario.node[369].veinsmobility 	totalTime 	653
scalar RSUExampleScenario.node[369].veinsmobility 	stopTime 	2268
scalar RSUExampleScenario.node[369].veinsmobility 	minSpeed 	0
scalar RSUExampleScenario.node[369].veinsmobility 	maxSpeed 	16.668269259672
scalar RSUExampleScenario.node[369].veinsmobility 	totalDistance 	3345.934524658
scalar RSUExampleScenario.node[369].veinsmobility 	totalCO2Emission 	1097.0498032768
scalar RSUExampleScenario.node[370].nic.phy80211p 	busyTime 	6.1463414634146e-06
scalar RSUExampleScenario.node[370].nic.mac1609_4 	ReceivedUnicastPackets 	0
scalar RSUExampleScenario.node[370].nic.mac1609_4 	ReceivedBroadcasts 	16
scalar RSUExampleScenario.node[370].nic.mac1609_4 	SentPackets 	1
scalar RSUExampleScenario.node[370].nic.mac1609_4 	SNIRLostPackets 	5
scalar RSUExampleScenario.node[370].nic.mac1609_4 	RXTXLostPackets 	1
scalar RSUExampleScenario.node[370].nic.mac1609_4 	TotalLostPackets 	6
scalar RSUExampleScenario.node[370].nic.mac1609_4 	DroppedPacketsInMac 	0
scalar RSUExampleScenario.node[370].nic.mac1609_4 	TooLittleTime 	0
scalar RSUExampleScenario.node[370].nic.mac1609_4 	TimesIntoBackoff 	2
scalar RSUExampleScenario.node[370].nic.mac1609_4 	SlotsBackoff 	10
scalar RSUExampleScenario.node[370].nic.mac1609_4 	NumInternalContention 	0
scalar RSUExampleScenario.node[370].nic.mac1609_4 	totalBusyTime 	0.003457204676
scalar RSUExampleScenario.node[370].veinsmobility 	startTime 	1616
scalar RSUExampleScenario.node[370].veinsmobility 	totalTime 	655
scalar RSUExampleScenario.node[370].veinsmobility 	stopTime 	2272
scalar RSUExampleScenario.node[370].veinsmobility 	minSpeed 	0
scalar RSUExampleScenario.node[370].veinsmobility 	maxSpeed 	16.665126538024
scalar RSUExampleScenario.node[370].veinsmobility 	totalDistance 	3255.0208934335
scalar RSUExampleScenario.node[370].veinsmobility 	totalCO2Emission 	1079.4153016999
scalar RSUExampleScenario.node[371].nic.phy80211p 	busyTime 	6.0359281437126e-06
scalar RSUExampleScenario.node[371].nic.mac1609_4 	ReceivedUnicastPackets 	0
scalar RSUExampleScenario.node[371].nic.mac1609_4 	ReceivedBroadcasts 	15
scalar RSUExampleScenario.node[371].nic.mac1609_4 	SentPackets 	1
scalar RSUExampleScenario.node[371].nic.mac1609_4 	SNIRLostPackets 	6
scalar RSUExampleScenario.node[371].nic.mac1609_4 	RXTXLostPackets 	1
scalar RSUExampleScenario.node[371].nic.mac1609_4 	TotalLostPackets 	7
scalar RSUExampleScenario.node[371].nic.mac1609_4 	DroppedPacketsInMac 	0
scalar RSUExampleScenario.node[371].nic.mac1609_4 	TooLittleTime 	0
scalar RSUExampleScenario.node[371].nic.mac1609_4 	TimesIntoBackoff 	1
scalar RSUExampleScenario.node[371].nic.mac1609_4 	SlotsBackoff 	6
scalar RSUExampleScenario.node[371].nic.mac1609_4 	NumInternalContention 	0
scalar RSUExampleScenario.node[371].nic.mac1609_4 	totalBusyTime 	0.003457
scalar RSUExampleScenario.node[371].veinsmobility 	startTime 	1619
scalar RSUExampleScenario.node[371].veinsmobility 	totalTime 	667
scalar RSUExampleScenario.node[371].veinsmobility 	stopTime 	2287
scalar RSUExampleScenario.node[371].veinsmobility 	minSpeed 	0
scalar RSUExampleScenario.node[371].veinsmobility 	maxSpeed 	16.668985432611
scalar RSUExampleScenario.node[371].veinsmobility 	totalDistance 	3249.2483597671
scalar RSUExampleScenario.node[371].veinsmobility 	totalCO2Emission 	1082.8297915656
scalar RSUExampleScenario.node[372].nic.phy80211p 	busyTime 	6.2857142857143e-06
scalar RSUExampleScenario.node[372].nic.mac1609_4 	ReceivedUnicastPackets 	0
scalar RSUExampleScenario.node[372].nic.mac1609_4 	ReceivedBroadcasts 	15
scalar RSUExampleScenario.node[372].nic.mac1609_4 	SentPackets 	1
scalar RSUExampleScenario.node[372].nic.mac1609_4 	SNIRLostPackets 	7
scalar RSUExampleScenario.node[372].nic.mac1609_4 	RXTXLostPackets 	0
scalar RSUExampleScenario.node[372].nic.mac1609_4 	TotalLostPackets 	7
scalar RSUExampleScenario.node[372].nic.mac1609_4 	DroppedPacketsInMac 	0
scalar RSUExampleScenario.node[372].nic.mac1609_4 	TooLittleTime 	0
scalar RSUExampleScenario.node[372].nic.mac1609_4 	TimesIntoBackoff 	1
scalar RSUExampleScenario.node[372].nic.mac1609_4 	SlotsBackoff 	4
scalar RSUExampleScenario.node[372].nic.mac1609_4 	NumInternalContention 	0
scalar RSUExampleScenario.node[372].nic.mac1609_4 	totalBusyTime 	0.003457
scalar RSUExampleScenario.node[372].veinsmobility 	startTime 	1621
scalar RSUExampleScenario.node[372].veinsmobility 	totalTime 	671
scalar RSUExampleScenario.node[372].veinsmobility 	stopTime 	2293
scalar RSUExampleScenario.node[372].veinsmobility 	minSpeed 	0
scalar RSUExampleScenario.node[372].veinsmobility 	maxSpeed 	16.669417778973
scalar RSUExampleScenario.node[372].veinsmobility 	totalDistance 	3253.825494336
scalar RSUExampleScenario.node[372].veinsmobility 	totalCO2Emission 	1099.0482678195
scalar RSUExampleScenario.node[374].nic.phy80211p 	busyTime 	6.2857142857143e-06
scalar RSUExampleScenario.node[374].nic.mac1609_4 	ReceivedUnicastPackets 	0
scalar RSUExampleScenario.node[374].nic.mac1609_4 	ReceivedBroadcasts 	14
scalar RSUExampleScenario.node[374].nic.mac1609_4 	SentPackets 	1
scalar RSUExampleScenario.node[374].nic.mac1609_4 	SNIRLostPackets 	8
scalar RSUExampleScenario.node[374].nic.mac1609_4 	RXTXLostPackets 	0
scalar RSUExampleScenario.node[374].nic.mac1609_4 	TotalLostPackets 	8
scalar RSUExampleScenario.node[374].nic.mac1609_4 	DroppedPacketsInMac 	0
scalar RSUExampleScenario.node[374].nic.mac1609_4 	TooLittleTime 	0
scalar RSUExampleScenario.node[374].nic.mac1609_4 	TimesIntoBackoff 	2
scalar RSUExampleScenario.node[374].nic.mac1609_4 	SlotsBackoff 	8
scalar RSUExampleScenario.node[374].nic.mac1609_4 	NumInternalContention 	0
scalar RSUExampleScenario.node[374].nic.mac1609_4 	totalBusyTime 	0.003457
scalar RSUExampleScenario.node[374].veinsmobility 	startTime 	1625
scalar RSUExampleScenario.node[374].veinsmobility 	totalTime 	671
scalar RSUExampleScenario.node[374].veinsmobility 	stopTime 	2297
scalar RSUExampleScenario.node[374].veinsmobility 	minSpeed 	0
scalar RSUExampleScenario.node[374].veinsmobility 	maxSpeed 	16.669637313623
scalar RSUExampleScenario.node[374].veinsmobility 	totalDistance 	3250.8961837268
scalar RSUExampleScenario.node[374].veinsmobility 	totalCO2Emission 	1093.5896099302
scalar RSUExampleScenario.node[375].nic.phy80211p 	busyTime 	6.2577777777778e-06
scalar RSUExampleScenario.node[375].nic.mac1609_4 	ReceivedUnicastPackets 	0
scalar RSUExampleScenario.node[375].nic.mac1609_4 	ReceivedBroadcasts 	13
scalar RSUExampleScenario.node[375].nic.mac1609_4 	SentPackets 	1
scalar RSUExampleScenario.node[375].nic.mac1609_4 	SNIRLostPackets 	9
scalar RSUExampleScenario.node[375].nic.mac1609_4 	RXTXLostPackets 	0
scalar RSUExampleScenario.node[375].nic.mac1609_4 	TotalLostPackets 	9
scalar RSUExampleScenario.node[375].nic.mac1609_4 	DroppedPacketsInMac 	0
scalar RSUExampleScenario.node[375].nic.mac1609_4 	TooLittleTime 	0
scalar RSUExampleScenario.node[375].nic.mac1609_4 	TimesIntoBackoff 	1
scalar RSUExampleScenario.node[375].nic.mac1609_4 	SlotsBackoff 	4
scalar RSUExampleScenario.node[375].nic.mac1609_4 	NumInternalContention 	0
scalar RSUExampleScenario.node[375].nic.mac1609_4 	totalBusyTime 	0.003457
scalar RSUExampleScenario.node[375].veinsmobility 	startTime 	1627
scalar RSUExampleScenario.node[375].veinsmobility 	totalTime 	674
scalar RSUExampleScenario.node[375].veinsmobility 	stopTime 	2302
scalar RSUExampleScenario.node[375].veinsmobility 	minSpeed 	0
scalar RSUExampleScenario.node[375].veinsmobility 	maxSpeed 	16.666686676258
scalar RSUExampleScenario.node[375].veinsmobility 	totalDistance 	3255.9820708597
scalar RSUExampleScenario.node[375].veinsmobility 	totalCO2Emission 	1094.2621974422
scalar RSUExampleScenario.node[376].nic.phy80211p 	busyTime 	6.2392909896603e-06
scalar RSUExampleScenario.node[376].nic.mac1609_4 	ReceivedUnicastPackets 	0
scalar RSUExampleScenario.node[376].nic.mac1609_4 	ReceivedBroadcasts 	13
scalar RSUExampleScenario.node[376].nic.mac1609_4 	SentPackets 	1
scalar RSUExampleScenario.node[376].nic.mac1609_4 	SNIRLostPackets 	9
scalar RSUExampleScenario.node[376].nic.mac1609_4 	RXTXLostPackets 	0
scalar RSUExampleScenario.node[376].nic.mac1609_4 	TotalLostPackets 	9
scalar RSUExampleScenario.node[376].nic.mac1609_4 	DroppedPacketsInMac 	0
scalar RSUExampleScenario.node[376].nic.mac1609_4 	TooLittleTime 	0
scalar RSUExampleScenario.node[376].nic.mac1609_4 	TimesIntoBackoff 	2
scalar RSUExampleScenario.node[376].nic.mac1609_4 	SlotsBackoff 	6
scalar RSUExampleScenario.node[376].nic.mac1609_4 	NumInternalContention 	0
scalar RSUExampleScenario.node[376].nic.mac1609_4 	totalBusyTime 	0.003457
scalar RSUExampleScenario.node[376].veinsmobility 	startTime 	1629
scalar RSUExampleScenario.node[376].veinsmobility 	totalTime 	676
scalar RSUExampleScenario.node[376].veinsmobility 	stopTime 	2306
scalar RSUExampleScenario.node[376].veinsmobility 	minSpeed 	0
scalar RSUExampleScenario.node[376].veinsmobility 	maxSpeed 	16.667235518042
scalar RSUExampleScenario.node[376].veinsmobility 	totalDistance 	3256.9571250171
scalar RSUExampleScenario.node[376].veinsmobility 	totalCO2Emission 	1101.2925117587
scalar RSUExampleScenario.node[378].nic.phy80211p 	busyTime 	6.2392909896603e-06
scalar RSUExampleScenario.node[378].nic.mac1609_4 	ReceivedUnicastPackets 	0
scalar RSUExampleScenario.node[378].nic.mac1609_4 	ReceivedBroadcasts 	14
scalar RSUExampleScenario.node[378].nic.mac1609_4 	SentPackets 	1
scalar RSUExampleScenario.node[378].nic.mac1609_4 	SNIRLostPackets 	8
scalar RSUExampleScenario.node[378].nic.mac1609_4 	RXTXLostPackets 	0
scalar RSUExampleScenario.node[378].nic.mac1609_4 	TotalLostPackets 	8
scalar RSUExampleScenario.node[378].nic.mac1609_4 	DroppedPacketsInMac 	0
scalar RSUExampleScenario.node[378].nic.mac1609_4 	TooLittleTime 	0
scalar RSUExampleScenario.node[378].nic.mac1609_4 	TimesIntoBackoff 	2
scalar RSUExampleScenario.node[378].nic.mac1609_4 	SlotsBackoff 	7
scalar RSUExampleScenario.node[378].nic.mac1609_4 	NumInternalContention 	0
scalar RSUExampleScenario.node[378].nic.mac1609_4 	totalBusyTime 	0.003457
scalar RSUExampleScenario.node[378].veinsmobility 	startTime 	1633
scalar RSUExampleScenario.node[378].veinsmobility 	totalTime 	676
scalar RSUExampleScenario.node[378].veinsmobility 	stopTime 	2310
scalar RSUExampleScenario.node[378].veinsmobility 	minSpeed 	0
scalar RSUExampleScenario.node[378].veinsmobility 	maxSpeed 	16.66935627003
scalar RSUExampleScenario.node[378].veinsmobility 	totalDistance 	3256.1518756438
scalar RSUExampleScenario.node[378].veinsmobility 	totalCO2Emission 	1099.5007071664
scalar RSUExampleScenario.node[379].nic.phy80211p 	busyTime 	5.9469026548673e-06
scalar RSUExampleScenario.node[379].nic.mac1609_4 	ReceivedUnicastPackets 	0
scalar RSUExampleScenario.node[379].nic.mac1609_4 	ReceivedBroadcasts 	14
scalar RSUExampleScenario.node[379].nic.mac1609_4 	SentPackets 	1
scalar RSUExampleScenario.node[379].nic.mac1609_4 	SNIRLostPackets 	7
scalar RSUExampleScenario.node[379].nic.mac1609_4 	RXTXLostPackets 	1
scalar RSUExampleScenario.node[379].nic.mac1609_4 	TotalLostPackets 	8
scalar RSUExampleScenario.node[379].nic.mac1609_4 	DroppedPacketsInMac 	0
scalar RSUExampleScenario.node[379].nic.mac1609_4 	TooLittleTime 	0
scalar RSUExampleScenario.node[379].nic.mac1609_4 	TimesIntoBackoff 	1
scalar RSUExampleScenario.node[379].nic.mac1609_4 	SlotsBackoff 	0
scalar RSUExampleScenario.node[379].nic.mac1609_4 	NumInternalContention 	0
scalar RSUExampleScenario.node[379].nic.mac1609_4 	totalBusyTime 	0.003457
scalar RSUExampleScenario.node[379].veinsmobility 	startTime 	1635
scalar RSUExampleScenario.node[379].veinsmobility 	totalTime 	677
scalar RSUExampleScenario.node[379].veinsmobility 	stopTime 	2313
scalar RSUExampleScenario.node[379].veinsmobility 	minSpeed 	0
scalar RSUExampleScenario.node[379].veinsmobility 	maxSpeed 	16.668585383226
scalar RSUExampleScenario.node[379].veinsmobility 	totalDistance 	3251.7289843589
scalar RSUExampleScenario.node[379].veinsmobility 	totalCO2Emission 	1097.6058545438
scalar RSUExampleScenario.node[380].nic.phy80211p 	busyTime 	5.9914893617021e-06
scalar RSUExampleScenario.node[380].nic.mac1609_4 	ReceivedUnicastPackets 	0
scalar RSUExampleScenario.node[380].nic.mac1609_4 	ReceivedBroadcasts 	14
scalar RSUExampleScenario.node[380].nic.mac1609_4 	SentPackets 	1
scalar RSUExampleScenario.node[380].nic.mac1609_4 	SNIRLostPackets 	8
scalar RSUExampleScenario.node[380].nic.mac1609_4 	RXTXLostPackets 	0
scalar RSUExampleScenario.node[380].nic.mac1609_4 	TotalLostPackets 	8
scalar RSUExampleScenario.node[380].nic.mac1609_4 	DroppedPacketsInMac 	0
scalar RSUExampleScenario.node[380].nic.mac1609_4 	TooLittleTime 	0
scalar RSUExampleScenario.node[380].nic.mac1609_4 	TimesIntoBackoff 	1
scalar RSUExampleScenario.node[380].nic.mac1609_4 	SlotsBackoff 	5
scalar RSUExampleScenario.node[380].nic.mac1609_4 	NumInternalContention 	0
scalar RSUExampleScenario.node[380].nic.mac1609_4 	totalBusyTime 	0.003457
scalar RSUExampleScenario.node[380].veinsmobility 	startTime 	1637
scalar RSUExampleScenario.node[380].veinsmobility 	totalTime 	704
scalar RSUExampleScenario.node[380].veinsmobility 	stopTime 	2342
scalar RSUExampleScenario.node[380].veinsmobility 	minSpeed 	0
scalar RSUExampleScenario.node[380].veinsmobility 	maxSpeed 	16.669908142295
scalar RSUExampleScenario.node[380].veinsmobility 	totalDistance 	3257.0478975705
scalar RSUExampleScenario.node[380].veinsmobility 	totalCO2Emission 	1151.1701449215
scalar RSUExampleScenario.node[381].nic.phy80211p 	busyTime 	5.6949152542373e-06
scalar RSUExampleScenario.node[381].nic.mac1609_4 	ReceivedUnicastPackets 	0
scalar RSUExampleScenario.node[381].nic.mac1609_4 	ReceivedBroadcasts 	14
scalar RSUExampleScenario.node[381].nic.mac1609_4 	SentPackets 	1
scalar RSUExampleScenario.node[381].nic.mac1609_4 	SNIRLostPackets 	7
scalar RSUExampleScenario.node[381].nic.mac1609_4 	RXTXLostPackets 	1
scalar RSUExampleScenario.node[381].nic.mac1609_4 	TotalLostPackets 	8
scalar RSUExampleScenario.node[381].nic.mac1609_4 	DroppedPacketsInMac 	0
scalar RSUExampleScenario.node[381].nic.mac1609_4 	TooLittleTime 	0
scalar RSUExampleScenario.node[381].nic.mac1609_4 	TimesIntoBackoff 	2
scalar RSUExampleScenario.node[381].nic.mac1609_4 	SlotsBackoff 	7
scalar RSUExampleScenario.node[381].nic.mac1609_4 	NumInternalContention 	0
scalar RSUExampleScenario.node[381].nic.mac1609_4 	totalBusyTime 	0.003457114004
scalar RSUExampleScenario.node[381].veinsmobility 	startTime 	1639
scalar RSUExampleScenario.node[381].veinsmobility 	totalTime 	707
scalar RSUExampleScenario.node[381].veinsmobility 	stopTime 	2347
scalar RSUExampleScenario.node[381].veinsmobility 	minSpeed 	0
scalar RSUExampleScenario.node[381].veinsmobility 	maxSpeed 	16.669664742083
scalar RSUExampleScenario.node[381].veinsmobility 	totalDistance 	3250.6746363904
scalar RSUExampleScenario.node[381].veinsmobility 	totalCO2Emission 	1137.360462102
scalar RSUExampleScenario.node[382].nic.phy80211p 	busyTime 	5.6629213483146e-06
scalar RSUExampleScenario.node[382].nic.mac1609_4 	ReceivedUnicastPackets 	0
scalar RSUExampleScenario.node[382].nic.mac1609_4 	ReceivedBroadcasts 	15
scalar RSUExampleScenario.node[382].nic.mac1609_4 	SentPackets 	1
scalar RSUExampleScenario.node[382].nic.mac1609_4 	SNIRLostPackets 	6
scalar RSUExampleScenario.node[382].nic.mac1609_4 	RXTXLostPackets 	1
scalar RSUExampleScenario.node[382].nic.mac1609_4 	TotalLostPackets 	7
scalar RSUExampleScenario.node[382].nic.mac1609_4 	DroppedPacketsInMac 	0
scalar RSUExampleScenario.node[382].nic.mac1609_4 	TooLittleTime 	0
scalar RSUExampleScenario.node[382].nic.mac1609_4 	TimesIntoBackoff 	2
scalar RSUExampleScenario.node[382].nic.mac1609_4 	SlotsBackoff 	9
scalar RSUExampleScenario.node[382].nic.mac1609_4 	NumInternalContention 	0
scalar RSUExampleScenario.node[382].nic.mac1609_4 	totalBusyTime 	0.003457
scalar RSUExampleScenario.node[382].veinsmobility 	startTime 	1641
scalar RSUExampleScenario.node[382].veinsmobility 	totalTime 	711
scalar RSUExampleScenario.node[382].veinsmobility 	stopTime 	2353
scalar RSUExampleScenario.node[382].veinsmobility 	minSpeed 	0
scalar RSUExampleScenario.node[382].veinsmobility 	maxSpeed 	16.668905109123
scalar RSUExampleScenario.node[382].veinsmobility 	totalDistance 	3254.7125225699
scalar RSUExampleScenario.node[382].veinsmobility 	totalCO2Emission 	1145.4454317452
scalar RSUExampleScenario.node[383].nic.phy80211p 	busyTime 	7.5188811188811e-06
scalar RSUExampleScenario.node[383].nic.mac1609_4 	ReceivedUnicastPackets 	0
scalar RSUExampleScenario.node[383].nic.mac1609_4 	ReceivedBroadcasts 	20
scalar RSUExampleScenario.node[383].nic.mac1609_4 	SentPackets 	1
scalar RSUExampleScenario.node[383].nic.mac1609_4 	SNIRLostPackets 	8
scalar RSUExampleScenario.node[383].nic.mac1609_4 	RXTXLostPackets 	0
scalar RSUExampleScenario.node[383].nic.mac1609_4 	TotalLostPackets 	8
scalar RSUExampleScenario.node[383].nic.mac1609_4 	DroppedPacketsInMac 	0
scalar RSUExampleScenario.node[383].nic.mac1609_4 	TooLittleTime 	0
scalar RSUExampleScenario.node[383].nic.mac1609_4 	TimesIntoBackoff 	1
scalar RSUExampleScenario.node[383].nic.mac1609_4 	SlotsBackoff 	2
scalar RSUExampleScenario.node[383].nic.mac1609_4 	NumInternalContention 	0
scalar RSUExampleScenario.node[383].nic.mac1609_4 	totalBusyTime 	0.004609001991
scalar RSUExampleScenario.node[383].veinsmobility 	startTime 	1643
scalar RSUExampleScenario.node[383].veinsmobility 	totalTime 	714
scalar RSUExampleScenario.node[383].veinsmobility 	stopTime 	2358
scalar RSUExampleScenario.node[383].veinsmobility 	minSpeed 	0
scalar RSUExampleScenario.node[383].veinsmobility 	maxSpeed 	16.668448798243
scalar RSUExampleScenario.node[383].veinsmobility 	totalDistance 	3254.7720309766
scalar RSUExampleScenario.node[383].veinsmobility 	totalCO2Emission 	1142.1989057968
scalar RSUExampleScenario.rsu[0].nic.phy80211p 	busyTime 	4.032e-07
scalar RSUExampleScenario.rsu[0].nic.mac1609_4 	ReceivedUnicastPackets 	0
scalar RSUExampleScenario.rsu[0].nic.mac1609_4 	ReceivedBroadcasts 	17
scalar RSUExampleScenario.rsu[0].nic.mac1609_4 	SentPackets 	1
scalar RSUExampleScenario.rsu[0].nic.mac1609_4 	SNIRLostPackets 	4
scalar RSUExampleScenario.rsu[0].nic.mac1609_4 	RXTXLostPackets 	0
scalar RSUExampleScenario.rsu[0].nic.mac1609_4 	TotalLostPackets 	4
scalar RSUExampleScenario.rsu[0].nic.mac1609_4 	DroppedPacketsInMac 	0
scalar RSUExampleScenario.rsu[0].nic.mac1609_4 	TooLittleTime 	0
scalar RSUExampleScenario.rsu[0].nic.mac1609_4 	TimesIntoBackoff 	1
scalar RSUExampleScenario.rsu[0].nic.mac1609_4 	SlotsBackoff 	2
scalar RSUExampleScenario.rsu[0].nic.mac1609_4 	NumInternalContention 	0
scalar RSUExampleScenario.rsu[0].nic.mac1609_4 	totalBusyTime 	0.003841
