version 2
run debug-0-20161220-11:53:37-2511
attr configname debug
attr datetime 20161220-11:53:37
attr experiment debug
attr inifile omnetpp.ini
attr iterationvars ""
attr iterationvars2 $repetition=0
attr measurement ""
attr network RSUExampleScenario
attr processid 2511
attr repetition 0
attr replication #0
attr resultdir results
attr runnumber 0
attr seedset 0
param **.coreDebug false
param **.debug false
param *.**.nic.mac1609_4.bitrate 27Mbps
param *.**.nic.mac1609_4.txPower 20mW
param *.**.nic.mac1609_4.useServiceChannel false
param *.**.nic.phy80211p.analogueModels "xmldoc(\"config.xml\")"
param *.**.nic.phy80211p.decider "xmldoc(\"config.xml\")"
param *.**.nic.phy80211p.sensitivity -89dBm
param *.**.nic.phy80211p.thermalNoise -110dBm
param *.**.nic.phy80211p.usePropagationDelay true
param *.**.nic.phy80211p.useThermalNoise true
param *.annotations.draw false
param *.connectionManager.alpha 2.0
param *.connectionManager.carrierFrequency "5.890e9 Hz"
param *.connectionManager.pMax 20mW
param *.connectionManager.sat -89dBm
param *.connectionManager.sendDirect true
param *.manager.autoShutdown true
param *.manager.host "\"localhost\""
param *.manager.launchConfig "xmldoc(\"erlangen.launchd.xml\")"
param *.manager.margin 25
param *.manager.moduleDisplayString "\"\""
param *.manager.moduleName "\"node\""
param *.manager.moduleType "\"org.car2x.veins.nodes.Car\""
param *.manager.port 9999
param *.manager.updateInterval 1s
param *.node[*].appl.beaconInterval 1s
param *.node[*].appl.beaconPriority 3
param *.node[*].appl.dataOnSch false
param *.node[*].appl.dataPriority 2
param *.node[*].appl.debug false
param *.node[*].appl.headerLength "256 bit"
param *.node[*].appl.maxOffset 0.005s
param *.node[*].appl.sendBeacons false
param *.node[*].appl.sendData true
param *.node[*].applType "\"TraCIDemo11p\""
param *.node[*].mobilityType "\"TraCIMobility\""
param *.node[*].mobilityType.debug true
param *.node[*].veinsmobility.accidentCount 5
param *.node[*].veinsmobility.accidentDuration 43s
param *.node[*].veinsmobility.accidentStart 85s
param *.node[*].veinsmobility.x 0
param *.node[*].veinsmobility.y 0
param *.node[*].veinsmobility.z 1.895
param *.node[*].veinsmobilityType "\"org.car2x.veins.modules.mobility.traci.TraCIMobility\""
param *.node[*].veinsmobilityType.debug true
param *.obstacles.debug false
param *.obstacles.obstacles "xmldoc(\"config.xml\", \"//AnalogueModel[@type='SimpleObstacleShadowing']/obstacles\")"
param *.playgroundSizeX 2500m
param *.playgroundSizeY 2500m
param *.playgroundSizeZ 50m
param *.rsu[*].appl.beaconInterval 1s
param *.rsu[*].appl.beaconPriority 3
param *.rsu[*].appl.dataOnSch false
param *.rsu[*].appl.dataPriority 2
param *.rsu[*].appl.debug false
param *.rsu[*].appl.headerLength "256 bit"
param *.rsu[*].appl.maxOffset 0.005s
param *.rsu[*].appl.sendBeacons false
param *.rsu[*].appl.sendData true
param *.rsu[*].applType "\"TraCIDemoRSU11p\""
param *.rsu[0].mobility.x 2000
param *.rsu[0].mobility.y 2000
param *.rsu[0].mobility.z 3
param *.world.use2D false
param *.world.useTorus false

vector 4  RSUExampleScenario.node[0].veinsmobility  posx  ETV
vector 5  RSUExampleScenario.node[0].veinsmobility  posy  ETV
vector 6  RSUExampleScenario.node[0].veinsmobility  speed  ETV
vector 11  RSUExampleScenario.node[1].veinsmobility  posx  ETV
vector 12  RSUExampleScenario.node[1].veinsmobility  posy  ETV
vector 7  RSUExampleScenario.node[0].veinsmobility  acceleration  ETV
vector 8  RSUExampleScenario.node[0].veinsmobility  co2emission  ETV
vector 13  RSUExampleScenario.node[1].veinsmobility  speed  ETV
vector 18  RSUExampleScenario.node[2].veinsmobility  posx  ETV
vector 19  RSUExampleScenario.node[2].veinsmobility  posy  ETV
vector 14  RSUExampleScenario.node[1].veinsmobility  acceleration  ETV
vector 15  RSUExampleScenario.node[1].veinsmobility  co2emission  ETV
vector 20  RSUExampleScenario.node[2].veinsmobility  speed  ETV
vector 25  RSUExampleScenario.node[3].veinsmobility  posx  ETV
vector 26  RSUExampleScenario.node[3].veinsmobility  posy  ETV
vector 21  RSUExampleScenario.node[2].veinsmobility  acceleration  ETV
vector 22  RSUExampleScenario.node[2].veinsmobility  co2emission  ETV
vector 32  RSUExampleScenario.node[4].veinsmobility  posx  ETV
vector 33  RSUExampleScenario.node[4].veinsmobility  posy  ETV
vector 27  RSUExampleScenario.node[3].veinsmobility  speed  ETV
vector 28  RSUExampleScenario.node[3].veinsmobility  acceleration  ETV
vector 29  RSUExampleScenario.node[3].veinsmobility  co2emission  ETV
vector 34  RSUExampleScenario.node[4].veinsmobility  speed  ETV
vector 39  RSUExampleScenario.node[5].veinsmobility  posx  ETV
vector 40  RSUExampleScenario.node[5].veinsmobility  posy  ETV
vector 35  RSUExampleScenario.node[4].veinsmobility  acceleration  ETV
vector 36  RSUExampleScenario.node[4].veinsmobility  co2emission  ETV
vector 41  RSUExampleScenario.node[5].veinsmobility  speed  ETV
vector 46  RSUExampleScenario.node[6].veinsmobility  posx  ETV
vector 47  RSUExampleScenario.node[6].veinsmobility  posy  ETV
vector 42  RSUExampleScenario.node[5].veinsmobility  acceleration  ETV
vector 43  RSUExampleScenario.node[5].veinsmobility  co2emission  ETV
vector 48  RSUExampleScenario.node[6].veinsmobility  speed  ETV
vector 53  RSUExampleScenario.node[7].veinsmobility  posx  ETV
vector 54  RSUExampleScenario.node[7].veinsmobility  posy  ETV
vector 49  RSUExampleScenario.node[6].veinsmobility  acceleration  ETV
vector 50  RSUExampleScenario.node[6].veinsmobility  co2emission  ETV
vector 55  RSUExampleScenario.node[7].veinsmobility  speed  ETV
vector 60  RSUExampleScenario.node[8].veinsmobility  posx  ETV
vector 61  RSUExampleScenario.node[8].veinsmobility  posy  ETV
vector 56  RSUExampleScenario.node[7].veinsmobility  acceleration  ETV
vector 57  RSUExampleScenario.node[7].veinsmobility  co2emission  ETV
vector 67  RSUExampleScenario.node[9].veinsmobility  posx  ETV
vector 68  RSUExampleScenario.node[9].veinsmobility  posy  ETV
vector 62  RSUExampleScenario.node[8].veinsmobility  speed  ETV
vector 63  RSUExampleScenario.node[8].veinsmobility  acceleration  ETV
vector 64  RSUExampleScenario.node[8].veinsmobility  co2emission  ETV
vector 69  RSUExampleScenario.node[9].veinsmobility  speed  ETV
vector 74  RSUExampleScenario.node[10].veinsmobility  posx  ETV
vector 75  RSUExampleScenario.node[10].veinsmobility  posy  ETV
vector 70  RSUExampleScenario.node[9].veinsmobility  acceleration  ETV
vector 71  RSUExampleScenario.node[9].veinsmobility  co2emission  ETV
vector 81  RSUExampleScenario.node[11].veinsmobility  posx  ETV
vector 82  RSUExampleScenario.node[11].veinsmobility  posy  ETV
vector 76  RSUExampleScenario.node[10].veinsmobility  speed  ETV
vector 77  RSUExampleScenario.node[10].veinsmobility  acceleration  ETV
vector 78  RSUExampleScenario.node[10].veinsmobility  co2emission  ETV
vector 83  RSUExampleScenario.node[11].veinsmobility  speed  ETV
vector 84  RSUExampleScenario.node[11].veinsmobility  acceleration  ETV
vector 85  RSUExampleScenario.node[11].veinsmobility  co2emission  ETV
vector 88  RSUExampleScenario.node[12].veinsmobility  posx  ETV
vector 89  RSUExampleScenario.node[12].veinsmobility  posy  ETV
vector 90  RSUExampleScenario.node[12].veinsmobility  speed  ETV
vector 91  RSUExampleScenario.node[12].veinsmobility  acceleration  ETV
vector 92  RSUExampleScenario.node[12].veinsmobility  co2emission  ETV
vector 95  RSUExampleScenario.node[13].veinsmobility  posx  ETV
vector 96  RSUExampleScenario.node[13].veinsmobility  posy  ETV
vector 97  RSUExampleScenario.node[13].veinsmobility  speed  ETV
vector 102  RSUExampleScenario.node[14].veinsmobility  posx  ETV
vector 103  RSUExampleScenario.node[14].veinsmobility  posy  ETV
vector 98  RSUExampleScenario.node[13].veinsmobility  acceleration  ETV
vector 99  RSUExampleScenario.node[13].veinsmobility  co2emission  ETV
vector 104  RSUExampleScenario.node[14].veinsmobility  speed  ETV
vector 109  RSUExampleScenario.node[15].veinsmobility  posx  ETV
vector 110  RSUExampleScenario.node[15].veinsmobility  posy  ETV
vector 105  RSUExampleScenario.node[14].veinsmobility  acceleration  ETV
vector 106  RSUExampleScenario.node[14].veinsmobility  co2emission  ETV
vector 111  RSUExampleScenario.node[15].veinsmobility  speed  ETV
vector 116  RSUExampleScenario.node[16].veinsmobility  posx  ETV
vector 117  RSUExampleScenario.node[16].veinsmobility  posy  ETV
vector 112  RSUExampleScenario.node[15].veinsmobility  acceleration  ETV
vector 113  RSUExampleScenario.node[15].veinsmobility  co2emission  ETV
vector 118  RSUExampleScenario.node[16].veinsmobility  speed  ETV
vector 123  RSUExampleScenario.node[17].veinsmobility  posx  ETV
vector 124  RSUExampleScenario.node[17].veinsmobility  posy  ETV
vector 119  RSUExampleScenario.node[16].veinsmobility  acceleration  ETV
vector 120  RSUExampleScenario.node[16].veinsmobility  co2emission  ETV
vector 125  RSUExampleScenario.node[17].veinsmobility  speed  ETV
vector 130  RSUExampleScenario.node[18].veinsmobility  posx  ETV
vector 131  RSUExampleScenario.node[18].veinsmobility  posy  ETV
vector 126  RSUExampleScenario.node[17].veinsmobility  acceleration  ETV
vector 127  RSUExampleScenario.node[17].veinsmobility  co2emission  ETV
vector 132  RSUExampleScenario.node[18].veinsmobility  speed  ETV
vector 137  RSUExampleScenario.node[19].veinsmobility  posx  ETV
vector 138  RSUExampleScenario.node[19].veinsmobility  posy  ETV
vector 133  RSUExampleScenario.node[18].veinsmobility  acceleration  ETV
vector 134  RSUExampleScenario.node[18].veinsmobility  co2emission  ETV
vector 139  RSUExampleScenario.node[19].veinsmobility  speed  ETV
vector 144  RSUExampleScenario.node[20].veinsmobility  posx  ETV
vector 145  RSUExampleScenario.node[20].veinsmobility  posy  ETV
vector 140  RSUExampleScenario.node[19].veinsmobility  acceleration  ETV
vector 141  RSUExampleScenario.node[19].veinsmobility  co2emission  ETV
vector 146  RSUExampleScenario.node[20].veinsmobility  speed  ETV
vector 151  RSUExampleScenario.node[21].veinsmobility  posx  ETV
vector 152  RSUExampleScenario.node[21].veinsmobility  posy  ETV
vector 147  RSUExampleScenario.node[20].veinsmobility  acceleration  ETV
vector 148  RSUExampleScenario.node[20].veinsmobility  co2emission  ETV
vector 153  RSUExampleScenario.node[21].veinsmobility  speed  ETV
vector 158  RSUExampleScenario.node[22].veinsmobility  posx  ETV
vector 159  RSUExampleScenario.node[22].veinsmobility  posy  ETV
vector 154  RSUExampleScenario.node[21].veinsmobility  acceleration  ETV
vector 155  RSUExampleScenario.node[21].veinsmobility  co2emission  ETV
vector 160  RSUExampleScenario.node[22].veinsmobility  speed  ETV
vector 165  RSUExampleScenario.node[23].veinsmobility  posx  ETV
vector 166  RSUExampleScenario.node[23].veinsmobility  posy  ETV
vector 161  RSUExampleScenario.node[22].veinsmobility  acceleration  ETV
vector 162  RSUExampleScenario.node[22].veinsmobility  co2emission  ETV
vector 167  RSUExampleScenario.node[23].veinsmobility  speed  ETV
vector 172  RSUExampleScenario.node[24].veinsmobility  posx  ETV
vector 173  RSUExampleScenario.node[24].veinsmobility  posy  ETV
vector 168  RSUExampleScenario.node[23].veinsmobility  acceleration  ETV
vector 169  RSUExampleScenario.node[23].veinsmobility  co2emission  ETV
vector 174  RSUExampleScenario.node[24].veinsmobility  speed  ETV
vector 179  RSUExampleScenario.node[25].veinsmobility  posx  ETV
vector 180  RSUExampleScenario.node[25].veinsmobility  posy  ETV
vector 175  RSUExampleScenario.node[24].veinsmobility  acceleration  ETV
vector 176  RSUExampleScenario.node[24].veinsmobility  co2emission  ETV
vector 181  RSUExampleScenario.node[25].veinsmobility  speed  ETV
vector 186  RSUExampleScenario.node[26].veinsmobility  posx  ETV
vector 187  RSUExampleScenario.node[26].veinsmobility  posy  ETV
vector 182  RSUExampleScenario.node[25].veinsmobility  acceleration  ETV
vector 183  RSUExampleScenario.node[25].veinsmobility  co2emission  ETV
vector 188  RSUExampleScenario.node[26].veinsmobility  speed  ETV
vector 193  RSUExampleScenario.node[27].veinsmobility  posx  ETV
vector 194  RSUExampleScenario.node[27].veinsmobility  posy  ETV
vector 189  RSUExampleScenario.node[26].veinsmobility  acceleration  ETV
vector 190  RSUExampleScenario.node[26].veinsmobility  co2emission  ETV
vector 195  RSUExampleScenario.node[27].veinsmobility  speed  ETV
vector 196  RSUExampleScenario.node[27].veinsmobility  acceleration  ETV
vector 197  RSUExampleScenario.node[27].veinsmobility  co2emission  ETV
8	4	3	14.014945133927
8	5	4	6.0017155855021
8	6	5	1.9365134244819
8	7	6	1.65854558794
8	8	7	2.0153138028153
8	9	8	2.6667809205039
8	10	9	1.8912864932641
8	11	10	1.4741764638427
8	12	11	2.7304911544364
8	13	12	1.8013592627201
8	14	13	1.9538926975057
8	15	14	2.0428142835035
8	16	15	1.6876693559752
8	17	16	0.973
8	18	17	0.973
8	19	18	0.973
8	20	19	0.973
8	21	20	3.9560377443481
8	22	21	11.848367605251
8	23	22	17.930585319467
8	24	23	9.2577351565714
8	25	24	3.1024409026462
8	26	25	2.2527089335377
8	27	26	2.6638346762694
8	28	27	2.2852612779171
8	29	28	2.4399247994256
8	30	29	2.0998611001439
8	31	30	1.7393019435005
8	32	31	3.1504204629158
8	33	32	2.1551274075837
8	34	33	2.2622050522318
8	35	34	2.3466855729643
8	36	35	1.5239448604619
8	37	36	2.4705367530658
8	38	37	2.79611756533
8	39	38	2.2236840372035
8	40	39	2.5734514961559
8	41	40	2.5755652293216
8	42	41	1.3066707777449
8	43	42	3.066741809929
8	44	43	1.7479831371834
8	45	44	2.9464274888505
8	46	45	17.527282654372
8	47	46	15.991579661428
8	48	47	3.2718651271509
8	49	48	2.3652060556701
8	50	49	3.218953432163
8	51	50	3.2429014224977
8	52	51	3.0310286705341
8	53	52	4.2934079937988
8	54	53	1.8853319117505
8	55	54	3.9842937072235
8	56	55	3.2600568506674
8	57	56	2.6862811441957
8	58	57	0.973
8	59	58	0.973
8	60	59	0.973
8	61	60	0.973
8	62	61	0.973
8	63	62	0.973
8	64	63	12.149138138943
8	65	64	17.333663574377
8	66	65	21.367987326054
8	67	66	23.367963804155
8	68	67	31.048110965562
8	69	68	16.716933249039
8	70	69	4.0538124804949
8	71	70	3.9270515108559
8	72	71	4.5711052271444
8	73	72	3.8794450894437
8	74	73	4.4069583601737
8	75	74	4.3609133548569
8	76	75	4.9878587767377
8	77	76	4.6738579724269
8	78	77	3.7518999188125
8	79	78	4.0843267616933
8	80	79	5.2903318138386
8	81	80	4.7881584727724
8	82	81	3.4249334951809
8	83	82	3.970866206258
8	84	83	5.8536865289159
8	85	84	4.1879838647508
8	86	85	3.2740920682084
8	88	86	0.973
8	89	87	0.973
8	91	88	0.973
8	92	89	0.973
8	94	90	0.973
8	95	91	0.973
8	97	92	0.973
8	99	93	0.973
8	100	94	0.973
8	102	95	0.973
8	103	96	0.973
8	105	97	0.973
8	106	98	0.973
8	108	99	0.973
8	109	100	0.973
8	3537	101	0.973
8	3862	102	0.973
8	3863	103	0.973
8	3865	104	0.973
8	3867	105	0.973
8	3868	106	0.973
8	3869	107	0.973
8	3871	108	0.973
8	3872	109	0.973
8	3873	110	0.973
8	3874	111	0.973
8	3875	112	0.973
8	3876	113	0.973
8	3877	114	0.973
8	3878	115	0.973
8	3880	116	0.973
8	3881	117	0.973
8	3883	118	0.973
8	3884	119	0.973
8	3886	120	0.973
8	3887	121	0.973
8	3889	122	0.973
8	3890	123	0.973
8	3892	124	0.973
8	3893	125	0.973
8	3895	126	0.973
8	3896	127	0.973
8	3898	128	0.973
8	3900	129	7.0956032168489
8	3902	130	12.291809478065
8	3904	131	16.698705234176
8	3906	132	21.624271955046
8	3908	133	24.124255152428
8	3910	134	8.7102439129297
8	3912	135	0.973
8	3915	136	3.6071581974001
8	3916	137	3.9408559772387
8	3919	138	2.1553126807812
8	3920	139	4.2355075221549
8	3923	140	2.5249088298794
8	3924	141	2.5237783758359
8	3927	142	4.3456544530112
8	3928	143	2.5479720474565
8	3931	144	0.973
8	3933	145	0.973
8	3934	146	2.6342786523697
8	3936	147	2.5415842038659
8	3938	148	2.7265110065376
8	3939	149	1.9537194475736
8	3940	150	2.4329977919637
8	3942	151	1.8923184133865
8	3943	152	2.7030481134667
8	3944	153	2.1649316006277
8	3945	154	2.0909547493206
8	3946	155	2.1503541128481
8	3947	156	3.2569446807342
8	3948	157	1.8923330692735
8	3949	158	1.8156361954952
8	3951	159	2.7393343126314
8	3952	160	2.6525384323105
8	3954	161	2.3788203986898
8	3955	162	2.0802492265622
8	3957	163	1.8884894921544
8	3959	164	2.2453630024524
8	3961	165	2.8248934430434
8	3962	166	2.3769585279827
8	3964	167	2.6819279856197
8	3965	168	1.835614748176
8	3967	169	2.3397215755569
8	3968	170	2.7089063976472
8	3970	171	2.1128951633295
8	3971	172	2.7750122263343
8	3974	173	1.9294743333308
8	3976	174	2.2635708260619
8	3978	175	2.1467817317246
8	3979	176	2.002316687399
8	3981	177	3.2980550029152
8	3982	178	2.0670699218551
8	3985	179	1.9837183184186
8	3986	180	1.8621366077152
8	3989	181	0.973
8	3991	182	0.973
8	3993	183	0.973
8	3995	184	0.973
8	3999	185	0.973
8	4000	186	0.973
8	4003	187	0.973
8	4004	188	0.973
8	4006	189	0.973
8	4007	190	0.973
8	4008	191	0.973
8	4009	192	0.973
8	4010	193	0.973
8	4011	194	0.973
8	4013	195	0.973
8	4014	196	0.973
8	4016	197	0.973
8	4018	198	0.973
8	4019	199	0.973
8	4021	200	0.973
8	4023	201	0.973
8	4024	202	0.973
8	4025	203	0.973
8	4026	204	0.973
8	4027	205	0.973
8	4028	206	0.973
8	4030	207	0.973
8	4031	208	0.973
8	4032	209	0.973
8	4033	210	0.973
8	4034	211	0.973
8	4036	212	0.973
8	4037	213	0.973
8	4039	214	0.973
8	4040	215	0.973
8	4042	216	0.973
8	4044	217	0.973
8	4046	218	0.973
8	4048	219	0.973
8	4051	220	0.973
8	4052	221	0.973
8	4055	222	0.973
8	4056	223	0.973
8	4058	224	6.6142545181397
8	4060	225	10.865616837199
8	4061	226	14.628430222716
8	4065	227	16.838515825085
8	4068	228	2.4738308224553
8	4069	229	1.987050160116
8	4072	230	2.2456761364313
8	4073	231	2.1204178528063
8	4075	232	2.4719883949525
8	4077	233	1.8659306831299
8	4078	234	2.2056106405972
8	4079	235	2.5594230832435
8	4080	236	2.0390004939716
8	4081	237	3.2605278911517
8	4083	238	1.9067529066645
8	4084	239	1.9950643505114
8	4087	240	2.3070975112475
8	4089	241	2.9827432370865
8	4090	242	2.6157541878855
8	4092	243	1.2683358945017
8	4094	244	2.7921618735418
8	4095	245	1.8275329308262
8	4096	246	3.363261786845
8	4097	247	1.8118752536456
8	4098	248	0.973
8	4099	249	0.973
8	4100	250	0.973
8	4101	251	1.9643394570007
8	4102	252	2.1864228112177
8	4103	253	2.3472416207525
8	4105	254	1.4655062372996
8	4107	255	2.6318634336536
8	4108	256	1.696448414059
8	4110	257	1.7715681733786
8	4111	258	2.3206896290735
8	4113	259	2.0812573940234
8	4114	260	2.1911211144001
8	4117	261	1.8721030189831
8	4120	262	0.973
8	4124	263	0.973
8	4125	264	0.973
8	4127	265	0.973
8	4128	266	0.973
8	4130	267	0.973
8	4131	268	0.973
8	4133	269	0.973
8	4137	270	0.973
8	4138	271	0.973
8	4139	272	0.973
8	4141	273	0.973
8	4142	274	0.973
8	4143	275	0.973
8	4145	276	0.973
8	4147	277	0.973
8	4148	278	0.973
8	4149	279	0.973
8	4151	280	0.973
8	4153	281	0.973
8	4154	282	0.973
8	4156	283	0.973
8	4158	284	0.973
8	4160	285	0.973
8	4162	286	0.973
8	4163	287	0.973
8	4165	288	0.973
8	4166	289	0.973
8	4167	290	0.973
8	4169	291	0.973
8	4171	292	0.973
8	4172	293	0.973
8	4173	294	0.973
8	4174	295	0.973
8	4175	296	0.973
8	4177	297	0.973
8	4178	298	0.973
8	4179	299	0.973
8	4180	300	0.973
8	4181	301	0.973
8	4184	302	0.973
8	4186	303	0.973
8	4188	304	0.973
8	4191	305	6.6414900247148
8	4193	306	10.807795203601
8	4194	307	14.339288211107
8	4195	308	4.9397508717158
8	4196	309	1.5128376640178
8	4198	310	2.3391779053217
8	4200	311	1.9693485606733
8	4204	312	1.7254680584012
8	4206	313	2.5746752203217
8	4207	314	2.1061268716634
8	4210	315	1.770060639362
8	4211	316	1.4903167631162
8	4212	317	2.0004026241742
8	4213	318	2.5036532566837
8	4214	319	2.062307586986
8	4216	320	1.8548838473386
8	4217	321	2.0817783567393
8	4218	322	2.1048130626752
8	4220	323	2.1559024579743
8	4222	324	0.973
8	4223	325	0.973
8	4224	326	0.973
8	4227	327	0.973
8	4229	328	10.534911305951
8	4233	329	15.973421005002
7	4	3	4.0115308514331
7	5	4	1.2047854172026
7	6	5	-0.0222770157177
7	7	6	-0.10400315329432
7	8	7	0.0046000732108951
7	9	8	0.19438340177759
7	10	9	-0.037548441784457
7	11	10	-0.16022218620405
7	12	11	0.21283291475847
7	13	12	-0.064336203904823
7	14	13	-0.017831036057324
7	15	14	0.0087414747662837
7	16	15	-0.09616395146586
7	17	16	-0.4203818895611
7	18	17	-3.4990124822287
7	19	18	-3.0123303945858
7	20	19	-2.4767763609637
7	21	20	1.7533857451604
7	22	21	4.149379824074
7	23	22	4.4858321299218
7	24	23	1.7586875506782
7	25	24	0.19270491696894
7	26	25	-0.019257538113742
7	27	26	0.080778576657174
7	28	27	-0.013162658428772
7	29	28	0.024606250254436
7	30	29	-0.058466251268982
7	31	30	-0.14534169911407
7	32	31	0.20163495814428
7	33	32	-0.044976811055093
7	34	33	-0.017703303778546
7	35	34	0.0033132111839969
7	36	35	-0.19856879228726
7	37	36	0.039572574719788
7	38	37	0.11724350132979
7	39	38	-0.02544650601223
7	40	39	0.06023614767939
7	41	40	0.058723978465423
7	42	41	-0.25348534563556
7	43	42	0.18404001655988
7	44	43	-0.14274631404318
7	45	44	0.15350044622086
7	46	45	3.1085834865272
7	47	46	2.4055787296221
7	48	47	0.017620144188406
7	49	48	-0.14831731456332
7	50	49	0.012438809042795
7	51	50	0.016381852002816
7	52	51	-0.022807809989899
7	53	52	0.20638605681248
7	54	53	-0.23831040980295
7	55	54	0.15214101989753
7	56	55	0.015632784171032
7	57	56	-0.089293941715734
7	58	57	-3.5213980960765
7	59	58	-3.5196946651822
7	60	59	-3.6658602900666
7	61	60	-3.133714469807
7	62	61	-2.7978133529978
7	63	62	-2.0617022345416
7	64	63	5.1647100576758
7	65	64	4.7969715954084
7	66	65	4.4243889340572
7	67	66	3.894581177691
7	68	67	4.3306519260723
7	69	68	1.8355387981415
7	70	69	-0.054132094942034
7	71	70	-0.070532647762448
7	72	71	0.025109406262636
7	73	72	-0.075838197590784
7	74	73	0.0033347262348968
7	75	74	-0.0034524036664507
7	76	75	0.087118810638785
7	77	76	0.038502528676766
7	78	77	-0.0960592304077
7	79	78	-0.044475824851546
7	80	79	0.1311706041731
7	81	80	0.053782711932435
7	82	81	-0.14500815894455
7	83	82	-0.060776557466014
7	84	83	0.21266595519148
7	85	84	-0.034833894064651
7	86	85	-0.16605013675988
7	88	86	-4.5
7	89	87	-4.5
7	91	88	-4.5
7	92	89	-4.5
7	94	90	-4.5
7	95	91	-4.5
7	97	92	-0.5769132363424
7	99	93	0
7	100	94	0
7	102	95	0
7	103	96	0
7	105	97	0
7	106	98	0
7	108	99	0
7	109	100	0
7	3537	101	0
7	3862	102	0
7	3863	103	0
7	3865	104	0
7	3867	105	0
7	3868	106	0
7	3869	107	0
7	3871	108	0
7	3872	109	0
7	3873	110	0
7	3874	111	0
7	3875	112	0
7	3876	113	0
7	3877	114	0
7	3878	115	0
7	3880	116	0
7	3881	117	0
7	3883	118	0
7	3884	119	0
7	3886	120	0
7	3887	121	0
7	3889	122	0
7	3890	123	0
7	3892	124	0
7	3893	125	0
7	3895	126	0
7	3896	127	0
7	3898	128	0
7	3900	129	4.8800772210754
7	3902	130	4.6391747031462
7	3904	131	4.3796402375773
7	3906	132	4.3394895361643
7	3908	133	3.9210542523581
7	3910	134	0.95907901785413
7	3912	135	-1.1612855872698
7	3915	136	0.083727232953535
7	3916	137	0.14077966962009
7	3919	138	-0.18836475757882
7	3920	139	0.19558496218175
7	3923	140	-0.1208025564719
7	3924	141	-0.11760649042204
7	3927	142	0.21712546759285
7	3928	143	-0.11598570130765
7	3931	144	-3.1739473673701
7	3933	145	-2.4819594560098
7	3934	146	0.079679380338639
7	3936	147	0.054457320841031
7	3938	148	0.097268040487542
7	3939	149	-0.093213166827336
7	3940	150	0.026208929782733
7	3942	151	-0.10664551965892
7	3943	152	0.094327162578701
7	3944	153	-0.039472928773609
7	3945	154	-0.056506221415475
7	3946	155	-0.040370921818543
7	3947	156	0.22903898618184
7	3948	157	-0.10856987143867
7	3949	158	-0.12489496978
7	3951	159	0.10477299519815
7	3952	160	0.080074614984916
7	3954	161	0.011263527115805
7	3955	162	-0.061666280897335
7	3957	163	-0.10714107017033
7	3959	164	-0.016540076024832
7	3961	165	0.12507100193761
7	3962	166	0.012324799736962
7	3964	167	0.085644325539469
7	3965	168	-0.12248400487006
7	3967	169	0.0040201473329198
7	3968	170	0.09329606577754
7	3970	171	-0.054038999415933
7	3971	172	0.10777831121348
7	3974	173	-0.10018395009451
7	3976	174	-0.016034111259504
7	3978	175	-0.044057551799344
7	3979	176	-0.078309386689213
7	3981	177	0.23800113268197
7	3982	178	-0.066621847422795
7	3985	179	-0.085244605317712
7	3986	180	-0.11305918271653
7	3989	181	-4.5
7	3991	182	-4.5
7	3993	183	-4.5
7	3995	184	-2.9039524594322
7	3999	185	0
7	4000	186	0
7	4003	187	0
7	4004	188	0
7	4006	189	0
7	4007	190	0
7	4008	191	0
7	4009	192	0
7	4010	193	0
7	4011	194	0
7	4013	195	0
7	4014	196	0
7	4016	197	0
7	4018	198	0
7	4019	199	0
7	4021	200	0
7	4023	201	0
7	4024	202	0
7	4025	203	0
7	4026	204	0
7	4027	205	0
7	4028	206	0
7	4030	207	0
7	4031	208	0
7	4032	209	0
7	4033	210	0
7	4034	211	0
7	4036	212	0
7	4037	213	0
7	4039	214	0
7	4040	215	0
7	4042	216	0
7	4044	217	0
7	4046	218	0
7	4048	219	0
7	4051	220	0
7	4052	221	0
7	4055	222	0
7	4056	223	0
7	4058	224	4.6759047650733
7	4060	225	4.2859440603997
7	4061	226	4.0469121954311
7	4065	227	3.6188634609937
7	4068	228	0.033097707238046
7	4069	229	-0.085909134149549
7	4072	230	-0.020550200846046
7	4073	231	-0.050530832232909
7	4075	232	0.036638633497059
7	4077	233	-0.11267464754172
7	4078	234	-0.026107793534177
7	4079	235	0.061265535652637
7	4080	236	-0.068074671830981
7	4081	237	0.23061465505511
7	4083	238	-0.10467167673632
7	4084	239	-0.080388574171813
7	4087	240	-0.0015853712894014
7	4089	241	0.16228124945425
7	4090	242	0.06814577079378
7	4092	243	-0.26329001829028
7	4094	244	0.11760362423025
7	4095	245	-0.1217596166674
7	4096	246	0.25480633402243
7	4097	247	-0.12866806630976
7	4098	248	-0.39839750276878
7	4099	249	-0.96623474266129
7	4100	250	-1.4657505681577
7	4101	251	-0.012899606693537
7	4102	252	0.052635643593968
7	4103	253	0.097545651746913
7	4105	254	-0.16390149544925
7	4107	255	0.18211703747511
7	4108	256	-0.09582961092703
7	4110	257	-0.071380678582937
7	4111	258	0.091698586856948
7	4113	259	0.018985292203723
7	4114	260	0.050312966452912
7	4117	261	-0.044088518340141
7	4120	262	-4.5
7	4124	263	-4.5
7	4125	264	-4.5
7	4127	265	-0.3026798429899
7	4128	266	0
7	4130	267	0
7	4131	268	0
7	4133	269	0
7	4137	270	0
7	4138	271	0
7	4139	272	0
7	4141	273	0
7	4142	274	0
7	4143	275	0
7	4145	276	0
7	4147	277	0
7	4148	278	0
7	4149	279	0
7	4151	280	0
7	4153	281	0
7	4154	282	0
7	4156	283	0
7	4158	284	0
7	4160	285	0
7	4162	286	0
7	4163	287	0
7	4165	288	0
7	4166	289	0
7	4167	290	0
7	4169	291	0
7	4171	292	0
7	4172	293	0
7	4173	294	0
7	4174	295	0
7	4175	296	0
7	4177	297	0
7	4178	298	0
7	4179	299	0
7	4180	300	0
7	4181	301	0
7	4184	302	0
7	4186	303	0
7	4188	304	0
7	4191	305	4.687690226654
7	4193	306	4.2642237444694
7	4194	307	3.9803921036515
7	4195	308	0.87744679698244
7	4196	309	-0.14933256650344
7	4198	310	0.097981068752707
7	4200	311	-0.013168146731333
7	4204	312	-0.084747281959279
7	4206	313	0.16610486345366
7	4207	314	0.024697846872732
7	4210	315	-0.074127306202426
7	4211	316	-0.15544042824768
7	4212	317	-5.8944001793293e-05
7	4213	318	0.14715703299269
7	4214	319	0.013722249176354
7	4216	320	-0.047449615886435
7	4217	321	0.020443582683802
7	4218	322	0.026534203989431
7	4220	323	0.040562476068736
7	4222	324	-1.7917612093375
7	4223	325	-3.2307208033127
7	4224	326	-2.9174222302862
7	4227	327	-2.2188151761308
7	4229	328	4.5406111726695
7	4233	329	4.5665180314146
6	3	2	8.5232192274596
6	4	3	12.534750078893
6	5	4	13.739535496095
6	6	5	13.717258480377
6	7	6	13.613255327083
6	8	7	13.617855400294
6	9	8	13.812238802072
6	10	9	13.774690360287
6	11	10	13.614468174083
6	12	11	13.827301088842
6	13	12	13.762964884937
6	14	13	13.745133848879
6	15	14	13.753875323646
6	16	15	13.65771137218
6	17	16	13.237329482619
6	18	17	9.7383170003902
6	19	18	6.7259866058043
6	20	19	4.2492102448406
6	21	20	6.002595990001
6	22	21	10.151975814075
6	23	22	14.637807943997
6	24	23	16.396495494675
6	25	24	16.589200411644
6	26	25	16.56994287353
6	27	26	16.650721450187
6	28	27	16.637558791758
6	29	28	16.662165042013
6	30	29	16.603698790744
6	31	30	16.45835709163
6	32	31	16.659992049774
6	33	32	16.615015238719
6	34	33	16.597311934941
6	35	34	16.600625146125
6	36	35	16.402056353837
6	37	36	16.441628928557
6	38	37	16.558872429887
6	39	38	16.533425923875
6	40	39	16.593662071554
6	41	40	16.652386050019
6	42	41	16.398900704384
6	43	42	16.582940720944
6	44	43	16.440194406901
6	45	44	16.593694853121
6	46	45	19.702278339649
6	47	46	22.107857069271
6	48	47	22.125477213459
6	49	48	21.977159898896
6	50	49	21.989598707939
6	51	50	22.005980559941
6	52	51	21.983172749951
6	53	52	22.189558806764
6	54	53	21.951248396961
6	55	54	22.103389416859
6	56	55	22.11902220103
6	57	56	22.029728259314
6	58	57	18.508330163237
6	59	58	14.988635498055
6	60	59	11.322775207988
6	61	60	8.1890607381815
6	62	61	5.3912473851837
6	63	62	3.3295451506421
6	64	63	8.4942552083179
6	65	64	13.291226803726
6	66	65	17.715615737784
6	67	66	21.610196915475
6	68	67	25.940848841547
6	69	68	27.776387639688
6	70	69	27.722255544746
6	71	70	27.651722896984
6	72	71	27.676832303246
6	73	72	27.600994105656
6	74	73	27.604328831891
6	75	74	27.600876428224
6	76	75	27.687995238863
6	77	76	27.72649776754
6	78	77	27.630438537132
6	79	78	27.58596271228
6	80	79	27.717133316454
6	81	80	27.770916028386
6	82	81	27.625907869441
6	83	82	27.565131311975
6	84	83	27.777797267167
6	85	84	27.742963373102
6	86	85	27.576913236342
6	88	86	23.076913236342
6	89	87	18.576913236342
6	91	88	14.076913236342
6	92	89	9.5769132363424
6	94	90	5.0769132363424
6	95	91	0.5769132363424
6	97	92	0
6	99	93	0
6	100	94	0
6	102	95	0
6	103	96	0
6	105	97	0
6	106	98	0
6	108	99	0
6	109	100	0
6	3537	101	0
6	3862	102	0
6	3863	103	0
6	3865	104	0
6	3867	105	0
6	3868	106	0
6	3869	107	0
6	3871	108	0
6	3872	109	0
6	3873	110	0
6	3874	111	0
6	3875	112	0
6	3876	113	0
6	3877	114	0
6	3878	115	0
6	3880	116	0
6	3881	117	0
6	3883	118	0
6	3884	119	0
6	3886	120	0
6	3887	121	0
6	3889	122	0
6	3890	123	0
6	3892	124	0
6	3893	125	0
6	3895	126	0
6	3896	127	0
6	3898	128	0
6	3900	129	4.8800772210754
6	3902	130	9.5192519242216
6	3904	131	13.898892161799
6	3906	132	18.238381697963
6	3908	133	22.159435950321
6	3910	134	23.118514968175
6	3912	135	21.957229380906
6	3915	136	22.040956613859
6	3916	137	22.181736283479
6	3919	138	21.9933715259
6	3920	139	22.188956488082
6	3923	140	22.06815393161
6	3924	141	21.950547441188
6	3927	142	22.167672908781
6	3928	143	22.051687207473
6	3931	144	18.877739840103
6	3933	145	16.395780384094
6	3934	146	16.475459764432
6	3936	147	16.529917085273
6	3938	148	16.627185125761
6	3939	149	16.533971958933
6	3940	150	16.560180888716
6	3942	151	16.453535369057
6	3943	152	16.547862531636
6	3944	153	16.508389602862
6	3945	154	16.451883381447
6	3946	155	16.411512459628
6	3947	156	16.64055144581
6	3948	157	16.531981574371
6	3949	158	16.407086604591
6	3951	159	16.51185959979
6	3952	160	16.591934214775
6	3954	161	16.60319774189
6	3955	162	16.541531460993
6	3957	163	16.434390390823
6	3959	164	16.417850314798
6	3961	165	16.542921316735
6	3962	166	16.555246116472
6	3964	167	16.640890442012
6	3965	168	16.518406437142
6	3967	169	16.522426584475
6	3968	170	16.615722650252
6	3970	171	16.561683650836
6	3971	172	16.66946196205
6	3974	173	16.569278011955
6	3976	174	16.553243900696
6	3978	175	16.509186348896
6	3979	176	16.430876962207
6	3981	177	16.668878094889
6	3982	178	16.602256247466
6	3985	179	16.517011642149
6	3986	180	16.403952459432
6	3989	181	11.903952459432
6	3991	182	7.4039524594322
6	3993	183	2.9039524594322
6	3995	184	0
6	3999	185	0
6	4000	186	0
6	4003	187	0
6	4004	188	0
6	4006	189	0
6	4007	190	0
6	4008	191	0
6	4009	192	0
6	4010	193	0
6	4011	194	0
6	4013	195	0
6	4014	196	0
6	4016	197	0
6	4018	198	0
6	4019	199	0
6	4021	200	0
6	4023	201	0
6	4024	202	0
6	4025	203	0
6	4026	204	0
6	4027	205	0
6	4028	206	0
6	4030	207	0
6	4031	208	0
6	4032	209	0
6	4033	210	0
6	4034	211	0
6	4036	212	0
6	4037	213	0
6	4039	214	0
6	4040	215	0
6	4042	216	0
6	4044	217	0
6	4046	218	0
6	4048	219	0
6	4051	220	0
6	4052	221	0
6	4055	222	0
6	4056	223	0
6	4058	224	4.6759047650733
6	4060	225	8.9618488254731
6	4061	226	13.008761020904
6	4065	227	16.627624481898
6	4068	228	16.660722189136
6	4069	229	16.574813054986
6	4072	230	16.55426285414
6	4073	231	16.503732021907
6	4075	232	16.540370655404
6	4077	233	16.427696007863
6	4078	234	16.401588214329
6	4079	235	16.462853749981
6	4080	236	16.39477907815
6	4081	237	16.625393733205
6	4083	238	16.520722056469
6	4084	239	16.440333482297
6	4087	240	16.438748111008
6	4089	241	16.601029360462
6	4090	242	16.669175131256
6	4092	243	16.405885112965
6	4094	244	16.523488737196
6	4095	245	16.401729120528
6	4096	246	16.656535454551
6	4097	247	16.527867388241
6	4098	248	16.129469885472
6	4099	249	15.163235142811
6	4100	250	13.697484574653
6	4101	251	13.68458496796
6	4102	252	13.737220611554
6	4103	253	13.834766263301
6	4105	254	13.670864767851
6	4107	255	13.852981805326
6	4108	256	13.757152194399
6	4110	257	13.685771515816
6	4111	258	13.777470102673
6	4113	259	13.796455394877
6	4114	260	13.84676836133
6	4117	261	13.80267984299
6	4120	262	9.3026798429899
6	4124	263	4.8026798429899
6	4125	264	0.3026798429899
6	4127	265	0
6	4128	266	0
6	4130	267	0
6	4131	268	0
6	4133	269	0
6	4137	270	0
6	4138	271	0
6	4139	272	0
6	4141	273	0
6	4142	274	0
6	4143	275	0
6	4145	276	0
6	4147	277	0
6	4148	278	0
6	4149	279	0
6	4151	280	0
6	4153	281	0
6	4154	282	0
6	4156	283	0
6	4158	284	0
6	4160	285	0
6	4162	286	0
6	4163	287	0
6	4165	288	0
6	4166	289	0
6	4167	290	0
6	4169	291	0
6	4171	292	0
6	4172	293	0
6	4173	294	0
6	4174	295	0
6	4175	296	0
6	4177	297	0
6	4178	298	0
6	4179	299	0
6	4180	300	0
6	4181	301	0
6	4184	302	0
6	4186	303	0
6	4188	304	0
6	4191	305	4.687690226654
6	4193	306	8.9519139711234
6	4194	307	12.932306074775
6	4195	308	13.809752871757
6	4196	309	13.660420305254
6	4198	310	13.758401374007
6	4200	311	13.745233227275
6	4204	312	13.660485945316
6	4206	313	13.82659080877
6	4207	314	13.851288655642
6	4210	315	13.77716134944
6	4211	316	13.621720921192
6	4212	317	13.621661977191
6	4213	318	13.768819010183
6	4214	319	13.78254125936
6	4216	320	13.735091643473
6	4217	321	13.755535226157
6	4218	322	13.782069430146
6	4220	323	13.822631906215
6	4222	324	12.030870696878
6	4223	325	8.8001498935649
6	4224	326	5.8827276632787
6	4227	327	3.6639124871479
6	4229	328	8.2045236598174
6	4233	329	12.771041691232
5	2	1	1578.8517600624
5	3	2	1578.8517600624
5	4	3	1581.1240946399
5	5	4	1588.7175141675
5	6	5	1598.3837091858
5	7	6	1608.1936584013
5	8	7	1617.9732133662
5	9	8	1627.7335060192
5	10	9	1637.5048429072
5	11	10	1647.3876453685
5	12	11	1658.677030215
5	13	12	1671.8663679278
5	14	13	1680.65219496
5	15	14	1689.8483565208
5	16	15	1695.1041666167
5	17	16	1696.983158676
5	18	17	1698.3751671426
5	19	18	1699.4405696597
5	20	19	1700.2100529755
5	21	20	1700.7202934772
5	22	21	1701.0258923443
5	23	22	1705.3044860959
5	24	23	1717.713532649
5	25	24	1733.7129138997
5	26	25	1750.0468638139
5	27	26	1766.5045914995
5	28	27	1783.0587275382
5	29	28	1799.554602473
5	30	29	1816.072181968
5	31	30	1832.5402888181
5	32	31	1848.9815372964
5	33	32	1865.4502582075
5	34	33	1881.8942595571
5	35	34	1898.4048532341
5	36	35	1914.9480105601
5	37	36	1931.4100156259
5	38	37	1947.8916849419
5	39	38	1964.3995579965
5	40	39	1980.8487074543
5	41	40	1997.2997857016
5	42	41	2013.754422131
5	43	42	2030.2665824257
5	44	43	2046.7291872669
5	45	44	2063.180554606
5	46	45	2079.6692984505
5	47	46	2097.3978864523
5	48	47	2114.5624369038
5	49	48	2120.8189575439
5	50	49	2120.0742672328
5	51	50	2119.3292075321
5	52	51	2118.5849635312
5	53	52	2117.8410396427
5	54	53	2117.0949095655
5	55	54	2116.3492349582
5	56	55	2115.6034484543
5	57	56	2112.8325587157
5	58	57	2108.0296449447
5	59	58	2101.5476983348
5	60	59	2095.0840872852
5	61	60	2088.500084335
5	62	61	2083.5859615412
5	63	62	2080.1706623863
5	64	63	2078.0037266519
5	65	64	2074.5379176075
5	66	65	2066.454443993
5	67	66	2055.0410654442
5	68	67	2040.5808005389
5	69	68	2022.9446193147
5	70	69	2002.9382355083
5	71	70	1982.7761691045
5	72	71	1963.3060613554
5	73	72	1944.0383706251
5	74	73	1924.7684124699
5	75	74	1905.5081625106
5	76	75	1886.2665064568
5	77	76	1866.9132401664
5	78	77	1847.1491638664
5	79	78	1827.3584626168
5	80	79	1807.5579115758
5	81	80	1787.7833100893
5	82	81	1767.9920931729
5	83	82	1748.9355738154
5	84	83	1729.7010255493
5	85	84	1710.3361011753
5	86	85	1690.970700901
5	88	86	1671.6050562896
5	89	87	1654.0337238302
5	91	88	1639.6123901512
5	92	89	1628.3410552517
5	94	90	1620.2197191324
5	95	91	1615.2483817926
5	97	92	1613.4270432321
5	99	93	1613.4181593088
5	100	94	1613.4181593088
5	102	95	1613.4181593088
5	103	96	1613.4181593088
5	105	97	1613.4181593088
5	106	98	1613.4181593088
5	108	99	1613.4181593088
5	109	100	1613.4181593088
5	3537	101	1613.4181593088
5	3862	102	1613.4181593088
5	3863	103	1613.4181593088
5	3865	104	1613.4181593088
5	3867	105	1613.4181593088
5	3868	106	1613.4181593088
5	3869	107	1613.4181593088
5	3871	108	1613.4181593088
5	3872	109	1613.4181593088
5	3873	110	1613.4181593088
5	3874	111	1613.4181593088
5	3875	112	1613.4181593088
5	3876	113	1613.4181593088
5	3877	114	1613.4181593088
5	3878	115	1613.4181593088
5	3880	116	1613.4181593088
5	3881	117	1613.4181593088
5	3883	118	1613.4181593088
5	3884	119	1613.4181593088
5	3886	120	1613.4181593088
5	3887	121	1613.4181593088
5	3889	122	1613.4181593088
5	3890	123	1613.4181593088
5	3892	124	1613.4181593088
5	3893	125	1613.4181593088
5	3895	126	1613.4181593088
5	3896	127	1613.4181593088
5	3898	128	1613.4181593088
5	3900	129	1613.4181593088
5	3902	130	1611.4713116046
5	3904	131	1606.2908584699
5	3906	132	1597.9498111848
5	3908	133	1586.5362326149
5	3910	134	1572.2300515706
5	3912	135	1555.6124712573
5	3915	136	1539.9663855201
5	3916	137	1524.2689023688
5	3919	138	1508.5523223002
5	3920	139	1493.0846724054
5	3923	140	1478.6257426478
5	3924	141	1464.1662528506
5	3927	142	1449.7418213291
5	3928	143	1436.7367798239
5	3931	144	1423.9972431781
5	3933	145	1412.0413290393
5	3934	146	1403.7494653715
5	3936	147	1396.6731925979
5	3938	148	1389.6336951917
5	3939	149	1383.6052889815
5	3940	150	1378.521886901
5	3942	151	1373.4343705792
5	3943	152	1370.4849046515
5	3944	153	1367.62842305
5	3945	154	1364.7936102394
5	3946	155	1362.0024202196
5	3947	156	1359.2003794909
5	3948	157	1356.6756596444
5	3949	158	1354.7850118559
5	3951	159	1353.0525851743
5	3952	160	1351.3180545932
5	3954	161	1349.5870329924
5	3955	162	1347.8546094242
5	3957	163	1346.1209204048
5	3959	164	1344.3869595854
5	3961	165	1342.6511274334
5	3962	166	1340.9386380902
5	3964	167	1339.809532444
5	3965	168	1338.640702202
5	3967	169	1337.2673506262
5	3968	170	1335.8572221743
5	3970	171	1334.4424676383
5	3971	172	1333.0294220932
5	3974	173	1331.6167182503
5	3976	174	1330.2030036505
5	3978	175	1328.7916837884
5	3979	176	1327.3794311229
5	3981	177	1325.968126528
5	3982	178	1324.5563865751
5	3985	179	1323.1890707668
5	3986	180	1321.8728250964
5	3989	181	1320.5548548969
5	3991	182	1319.4397014054
5	3993	183	1318.6980259903
5	3995	184	1318.4424782814
5	3999	185	1318.4011375597
5	4000	186	1318.4011375597
5	4003	187	1318.4011375597
5	4004	188	1318.4011375597
5	4006	189	1318.4011375597
5	4007	190	1318.4011375597
5	4008	191	1318.4011375597
5	4009	192	1318.4011375597
5	4010	193	1318.4011375597
5	4011	194	1318.4011375597
5	4013	195	1318.4011375597
5	4014	196	1318.4011375597
5	4016	197	1318.4011375597
5	4018	198	1318.4011375597
5	4019	199	1318.4011375597
5	4021	200	1318.4011375597
5	4023	201	1318.4011375597
5	4024	202	1318.4011375597
5	4025	203	1318.4011375597
5	4026	204	1318.4011375597
5	4027	205	1318.4011375597
5	4028	206	1318.4011375597
5	4030	207	1318.4011375597
5	4031	208	1318.4011375597
5	4032	209	1318.4011375597
5	4033	210	1318.4011375597
5	4034	211	1318.4011375597
5	4036	212	1318.4011375597
5	4037	213	1318.4011375597
5	4039	214	1318.4011375597
5	4040	215	1318.4011375597
5	4042	216	1318.4011375597
5	4044	217	1318.4011375597
5	4046	218	1318.4011375597
5	4048	219	1318.4011375597
5	4051	220	1318.4011375597
5	4052	221	1318.4011375597
5	4055	222	1318.4011375597
5	4056	223	1318.4011375597
5	4058	224	1318.4011375597
5	4060	225	1318.2612466831
5	4061	226	1317.8956850264
5	4065	227	1317.3172791479
5	4068	228	1319.0734662954
5	4069	229	1316.8956159959
5	4072	230	1314.6579888854
5	4073	231	1312.4201751957
5	4075	232	1309.0478598317
5	4077	233	1305.2813186524
5	4078	234	1301.513187944
5	4079	235	1297.600504023
5	4080	236	1293.1944874469
5	4081	237	1288.7489500502
5	4083	238	1284.1534123542
5	4084	239	1279.2225339282
5	4087	240	1274.2881818712
5	4089	241	1268.1161691723
5	4090	242	1261.9751592008
5	4092	243	1255.9102852251
5	4094	244	1250.1592910951
5	4095	245	1244.4076516638
5	4096	246	1237.7548164949
5	4097	247	1230.9824865917
5	4098	248	1224.222008572
5	4099	249	1217.3904791977
5	4100	250	1222.8504892224
5	4101	251	1235.9106482975
5	4102	252	1248.938809
5	4103	253	1261.9626213033
5	4105	254	1274.9874681095
5	4107	255	1288.0286594396
5	4108	256	1301.0652120542
5	4110	257	1314.0946829133
5	4111	258	1327.1195198204
5	4113	259	1340.1664171945
5	4114	260	1353.1860889075
5	4117	261	1366.203642807
5	4120	262	1379.2477212809
5	4124	263	1389.8236188283
5	4125	264	1396.1854083985
5	4127	265	1398.3542578006
5	4128	266	1398.3542578006
5	4130	267	1398.3542578006
5	4131	268	1398.3542578006
5	4133	269	1398.3542578006
5	4137	270	1398.3542578006
5	4138	271	1398.3542578006
5	4139	272	1398.3542578006
5	4141	273	1398.3542578006
5	4142	274	1398.3542578006
5	4143	275	1398.3542578006
5	4145	276	1398.3542578006
5	4147	277	1398.3542578006
5	4148	278	1398.3542578006
5	4149	279	1398.3542578006
5	4151	280	1398.3542578006
5	4153	281	1398.3542578006
5	4154	282	1398.3542578006
5	4156	283	1398.3542578006
5	4158	284	1398.3542578006
5	4160	285	1398.3542578006
5	4162	286	1398.3542578006
5	4163	287	1398.3542578006
5	4165	288	1398.3542578006
5	4166	289	1398.3542578006
5	4167	290	1398.3542578006
5	4169	291	1398.3542578006
5	4171	292	1398.3542578006
5	4172	293	1398.3542578006
5	4173	294	1398.3542578006
5	4174	295	1398.3542578006
5	4175	296	1398.3542578006
5	4177	297	1398.3542578006
5	4178	298	1398.3542578006
5	4179	299	1398.3542578006
5	4180	300	1398.3542578006
5	4181	301	1398.3542578006
5	4184	302	1398.3542578006
5	4186	303	1398.3542578006
5	4188	304	1398.3542578006
5	4191	305	1398.3542578006
5	4193	306	1400.9153096564
5	4194	307	1407.5330545828
5	4195	308	1417.900366622
5	4196	309	1430.6943595102
5	4198	310	1443.5136610921
5	4200	311	1456.3169160429
5	4204	312	1469.130182351
5	4206	313	1481.9936665026
5	4207	314	1494.8450931776
5	4210	315	1504.7410850981
5	4211	316	1498.8253487535
5	4212	317	1492.8967192192
5	4213	318	1486.9784220932
5	4214	319	1481.0250004046
5	4216	320	1475.2605049284
5	4217	321	1469.5732607851
5	4218	322	1463.7938023489
5	4220	323	1457.9987707045
5	4222	324	1451.905719026
5	4223	325	1445.8990000244
5	4224	326	1441.2487124614
5	4227	327	1437.9800960273
5	4229	328	1435.87818834
5	4233	329	1433.1415436175
4	2	1	2413.7844453137
4	3	2	2413.7844453137
4	4	3	2407.5960823625
4	5	4	2400.0888389039
4	6	5	2390.5453939146
4	7	6	2380.8600202472
4	8	7	2371.2046548572
4	9	8	2361.5683071698
4	10	9	2351.9210554961
4	11	10	2342.3487998184
4	12	11	2334.9552638802
4	13	12	2335.7994845044
4	14	13	2346.3202078094
4	15	14	2356.5174867492
4	16	15	2368.5641942256
4	17	16	2382.1676099513
4	18	17	2395.7654768422
4	19	18	2407.0328197792
4	20	19	2415.170619602
4	21	20	2420.5667535674
4	22	21	2424.8421408614
4	23	22	2430.8330384537
4	24	23	2432.718766069
4	25	24	2435.1500950936
4	26	25	2437.6322664907
4	27	26	2438.9402893033
4	28	27	2440.0883326825
4	29	28	2441.2878606477
4	30	29	2442.4889668998
4	31	30	2443.6864756574
4	32	31	2444.882031359
4	33	32	2446.0795847692
4	34	33	2447.2753406509
4	35	34	2448.4759389166
4	36	35	2449.6789051079
4	37	36	2450.422042751
4	38	37	2449.1015336409
4	39	38	2447.7789250908
4	40	39	2446.4610214673
4	41	40	2445.1429633094
4	42	41	2443.8246200705
4	43	42	2442.5016680275
4	44	43	2441.1826863604
4	45	44	2439.9632350545
4	46	45	2438.8472248726
4	47	46	2437.3871912354
4	48	47	2425.5247192065
4	49	48	2404.8180939838
4	50	49	2382.7700874245
4	51	50	2360.7111443835
4	52	51	2338.6763516921
4	53	52	2316.6510365814
4	54	53	2294.5604029547
4	55	54	2272.4832543705
4	56	55	2250.4027929124
4	57	56	2228.5297327412
4	58	57	2207.0949437505
4	59	58	2187.9828078828
4	60	59	2172.8690396437
4	61	60	2161.6847699921
4	62	61	2153.3371318083
4	63	62	2147.5355507673
4	64	63	2143.8545691899
4	65	64	2138.5617846675
4	66	65	2130.734497995
4	67	66	2120.0428196812
4	68	67	2106.4969182602
4	69	68	2089.9759226997
4	70	69	2071.2345991761
4	71	70	2052.3474373064
4	72	71	2032.7382901224
4	73	72	2012.9175802192
4	74	73	1993.0945378111
4	75	74	1973.2814822429
4	76	75	1953.4875542612
4	77	76	1933.789492214
4	78	77	1914.5025785484
4	79	78	1895.1896827368
4	80	79	1875.8671749368
4	81	80	1856.5699901932
4	82	81	1837.2565911642
4	83	82	1817.2411908342
4	84	83	1797.365074901
4	85	84	1777.6052005283
4	86	85	1757.8448405487
4	88	86	1738.0842312485
4	89	87	1720.1545293164
4	91	88	1705.4390707742
4	92	89	1693.937855622
4	94	90	1685.6508838597
4	95	91	1680.5781554873
4	97	92	1678.7196705048
4	99	93	1678.710605393
4	100	94	1678.710605393
4	102	95	1678.710605393
4	103	96	1678.710605393
4	105	97	1678.710605393
4	106	98	1678.710605393
4	108	99	1678.710605393
4	109	100	1678.710605393
4	3537	101	1678.710605393
4	3862	102	1678.710605393
4	3863	103	1678.710605393
4	3865	104	1678.710605393
4	3867	105	1678.710605393
4	3868	106	1678.710605393
4	3869	107	1678.710605393
4	3871	108	1678.710605393
4	3872	109	1678.710605393
4	3873	110	1678.710605393
4	3874	111	1678.710605393
4	3875	112	1678.710605393
4	3876	113	1678.710605393
4	3877	114	1678.710605393
4	3878	115	1678.710605393
4	3880	116	1678.710605393
4	3881	117	1678.710605393
4	3883	118	1678.710605393
4	3884	119	1678.710605393
4	3886	120	1678.710605393
4	3887	121	1678.710605393
4	3889	122	1678.710605393
4	3890	123	1678.710605393
4	3892	124	1678.710605393
4	3893	125	1678.710605393
4	3895	126	1678.710605393
4	3896	127	1678.710605393
4	3898	128	1678.710605393
4	3900	129	1678.710605393
4	3902	130	1676.7240514912
4	3904	131	1671.4379423817
4	3906	132	1662.9267784182
4	3908	133	1651.2804185185
4	3910	134	1636.6824611633
4	3912	135	1619.7259632689
4	3915	136	1604.1531311291
4	3916	137	1588.6026587459
4	3919	138	1573.0332682922
4	3920	139	1557.2546699841
4	3923	140	1540.5392481838
4	3924	141	1523.8231789418
4	3927	142	1507.1476392477
4	3928	143	1489.2592639829
4	3931	144	1471.1818420128
4	3933	145	1454.2163815787
4	3934	146	1439.395206125
4	3936	147	1424.3859214532
4	3938	148	1409.4546399858
4	3939	149	1394.0606587376
4	3940	150	1378.3045214834
4	3942	151	1362.5356320319
4	3943	152	1346.3459565099
4	3944	153	1330.0640113857
4	3945	154	1313.8686302535
4	3946	155	1297.5095745012
4	3947	156	1281.2585990399
4	3948	157	1264.9003467676
4	3949	158	1248.4239947746
4	3951	159	1231.9965135319
4	3952	160	1215.5490823734
4	3954	161	1199.1349246111
4	3955	162	1182.7074728942
4	3957	163	1166.268021717
4	3959	164	1149.8259932442
4	3961	165	1133.3662201291
4	3962	166	1116.916805469
4	3964	167	1100.450681468
4	3965	168	1083.9629320052
4	3967	169	1067.4736486563
4	3968	170	1051.034210799
4	3970	171	1034.5408415113
4	3971	172	1018.0673958437
4	3974	173	1001.5979337669
4	3976	174	985.11668818619
4	3978	175	968.66336072201
4	3979	176	952.19915853441
4	3981	177	935.74600905774
4	3982	178	919.28778412705
4	3985	179	902.85534306418
4	3986	180	886.39538084506
4	3989	181	869.91385298432
4	3991	182	856.03819196532
4	3993	183	846.64450030716
4	3995	184	841.72520691762
4	3999	185	840.92939801875
4	4000	186	840.92939801875
4	4003	187	840.92939801875
4	4004	188	840.92939801875
4	4006	189	840.92939801875
4	4007	190	840.92939801875
4	4008	191	840.92939801875
4	4009	192	840.92939801875
4	4010	193	840.92939801875
4	4011	194	840.92939801875
4	4013	195	840.92939801875
4	4014	196	840.92939801875
4	4016	197	840.92939801875
4	4018	198	840.92939801875
4	4019	199	840.92939801875
4	4021	200	840.92939801875
4	4023	201	840.92939801875
4	4024	202	840.92939801875
4	4025	203	840.92939801875
4	4026	204	840.92939801875
4	4027	205	840.92939801875
4	4028	206	840.92939801875
4	4030	207	840.92939801875
4	4031	208	840.92939801875
4	4032	209	840.92939801875
4	4033	210	840.92939801875
4	4034	211	840.92939801875
4	4036	212	840.92939801875
4	4037	213	840.92939801875
4	4039	214	840.92939801875
4	4040	215	840.92939801875
4	4042	216	840.92939801875
4	4044	217	840.92939801875
4	4046	218	840.92939801875
4	4048	219	840.92939801875
4	4051	220	840.92939801875
4	4052	221	840.92939801875
4	4055	222	840.92939801875
4	4056	223	840.92939801875
4	4058	224	840.92939801875
4	4060	225	838.23649863538
4	4061	226	831.19943675573
4	4065	227	820.06512360158
4	4068	228	804.16833879496
4	4069	229	787.78451730334
4	4072	230	771.37525182264
4	4073	231	754.9646180938
4	4075	232	738.77689813892
4	4077	233	722.67938267521
4	4078	234	706.57507385383
4	4079	235	690.52720778796
4	4080	236	674.56141041778
4	4081	237	658.6636965964
4	4083	238	642.7843982327
4	4084	239	627.00384644477
4	4087	240	611.22057683521
4	4089	241	595.85434321349
4	4090	242	580.56529594131
4	4092	243	565.16209007532
4	4094	244	549.6474859548
4	4095	245	534.13114098925
4	4096	246	518.95968205179
4	4097	247	503.83095559268
4	4098	248	488.72870508814
4	4099	249	473.64502281277
4	4100	250	461.89880344854
4	4101	251	457.07718416199
4	4102	252	452.65351123584
4	4103	253	448.23131479521
4	4105	254	443.8087670923
4	4107	255	439.37956728518
4	4108	256	434.95034796488
4	4110	257	430.52501699619
4	4111	258	426.10129778413
4	4113	259	421.67740992527
4	4114	260	417.26782542898
4	4117	261	412.85888494295
4	4120	262	408.43505260011
4	4124	263	404.37979623047
4	4125	264	401.90048904915
4	4127	265	401.05524828157
4	4128	266	401.05524828157
4	4130	267	401.05524828157
4	4131	268	401.05524828157
4	4133	269	401.05524828157
4	4137	270	401.05524828157
4	4138	271	401.05524828157
4	4139	272	401.05524828157
4	4141	273	401.05524828157
4	4142	274	401.05524828157
4	4143	275	401.05524828157
4	4145	276	401.05524828157
4	4147	277	401.05524828157
4	4148	278	401.05524828157
4	4149	279	401.05524828157
4	4151	280	401.05524828157
4	4153	281	401.05524828157
4	4154	282	401.05524828157
4	4156	283	401.05524828157
4	4158	284	401.05524828157
4	4160	285	401.05524828157
4	4162	286	401.05524828157
4	4163	287	401.05524828157
4	4165	288	401.05524828157
4	4166	289	401.05524828157
4	4167	290	401.05524828157
4	4169	291	401.05524828157
4	4171	292	401.05524828157
4	4172	293	401.05524828157
4	4173	294	401.05524828157
4	4174	295	401.05524828157
4	4175	296	401.05524828157
4	4177	297	401.05524828157
4	4178	298	401.05524828157
4	4179	299	401.05524828157
4	4180	300	401.05524828157
4	4181	301	401.05524828157
4	4184	302	401.05524828157
4	4186	303	401.05524828157
4	4188	304	401.05524828157
4	4191	305	401.05524828157
4	4193	306	400.05715895665
4	4194	307	397.47810123372
4	4195	308	393.43776778551
4	4196	309	388.45171188132
4	4198	310	383.45579271042
4	4200	311	378.46695186337
4	4204	312	373.59495628392
4	4206	313	368.70386634488
4	4207	314	363.81736102712
4	4210	315	356.75205924397
4	4211	316	344.31798619952
4	4212	317	331.90293732355
4	4213	318	319.50952538126
4	4214	319	307.04255964863
4	4216	320	294.56838627555
4	4217	321	282.0231057551
4	4218	322	269.55608093448
4	4220	323	257.05546273128
4	4222	324	244.76993700012
4	4223	325	233.0044461193
4	4224	326	223.89582693821
4	4227	327	217.49351698463
4	4229	328	213.37646477832
4	4233	329	208.13543886098
22	8	7	3.5275712716466
22	9	8	5.019205361553
22	10	9	4.9677930676456
22	11	10	6.1812770508295
22	12	11	6.8057341257707
22	13	12	2.8973293382646
22	14	13	2.6868889748091
22	15	14	2.2699008230544
22	16	15	2.5072979232285
22	17	16	2.8309849544499
22	18	17	0.973
22	19	18	0.973
22	20	19	0.973
22	21	20	0.973
22	22	21	0.973
22	23	22	0.973
22	24	23	0.973
22	25	24	0.973
22	26	25	0.973
22	27	26	0.973
22	28	27	0.973
22	29	28	0.973
22	30	29	0.973
22	31	30	1.9169675187147
22	32	31	2.5739740593804
22	33	32	0.973
22	34	33	10.736694610135
22	35	34	4.6850266309679
22	36	35	5.0636474136422
22	37	36	5.9084679411036
22	38	37	7.9542172301585
22	39	38	7.4899296501502
22	40	39	4.8708654945421
22	41	40	1.8461008873433
22	42	41	3.4563618539907
22	43	42	2.6466114636898
22	44	43	1.9502375012973
22	45	44	3.4972778245039
22	46	45	2.1959732870803
22	47	46	2.0641743079109
22	48	47	3.4031619732273
22	49	48	2.3144147140615
22	50	49	1.8489316822327
22	51	50	2.9609034450593
22	52	51	2.3665702607807
22	53	52	1.3451772497316
22	54	53	2.3634499773888
22	55	54	3.2953063411868
22	56	55	1.5690331600853
22	57	56	2.4999541750861
22	58	57	2.6094608206102
22	59	58	2.9538452379892
22	60	59	22.548733808952
22	61	60	10.256540358316
22	62	61	3.4666021838555
22	63	62	3.5525559220784
22	64	63	2.9174187611395
22	65	64	0.973
22	66	65	0.973
22	67	66	0.973
22	68	67	0.973
22	69	68	0.973
22	70	69	0.973
22	71	70	0.973
22	72	71	0.973
22	73	72	0.973
22	74	73	0.973
22	75	74	0.973
22	76	75	0.973
22	77	76	0.973
22	78	77	0.973
22	79	78	0.973
22	80	79	0.973
22	81	80	0.973
22	82	81	1.2446516380007
22	83	82	2.2741081203028
22	84	83	2.6429467400441
22	85	84	2.7243338436494
22	86	85	7.2365653187414
22	88	86	4.8334723118874
22	89	87	6.1584306606765
22	91	88	0.973
22	92	89	0.973
22	94	90	0.973
22	95	91	0.973
22	97	92	0.973
22	99	93	0.973
22	100	94	0.973
22	102	95	0.973
22	103	96	0.973
22	105	97	0.973
22	106	98	0.973
22	108	99	0.973
22	109	100	0.973
22	3537	101	0.973
22	3862	102	0.973
22	3863	103	0.973
22	3865	104	0.973
22	3867	105	0.973
22	3868	106	0.973
22	3869	107	0.973
22	3871	108	0.973
22	3872	109	0.973
22	3873	110	0.973
22	3874	111	0.973
22	3875	112	0.973
22	3876	113	0.973
22	3877	114	0.973
22	3878	115	0.973
22	3880	116	0.973
22	3881	117	0.973
22	3883	118	0.973
22	3884	119	0.973
22	3886	120	0.973
22	3887	121	0.973
22	3889	122	0.973
22	3890	123	0.973
22	3892	124	0.973
22	3893	125	0.973
22	3895	126	0.973
22	3896	127	0.973
22	3898	128	0.973
22	3900	129	0.973
22	3902	130	0.973
22	3904	131	0.973
22	3906	132	0.973
22	3908	133	7.591338546044
22	3910	134	11.327080307299
22	3912	135	16.152047732758
22	3915	136	1.9467469296119
22	3916	137	9.5239571330971
22	3919	138	21.969196460244
22	3920	139	28.35476559834
22	3923	140	28.946484558849
22	3924	141	4.5699312159949
22	3927	142	3.5447182625496
22	3928	143	4.577247176888
22	3931	144	3.956236380553
22	3933	145	5.9193252566931
22	3934	146	4.2297888057639
22	3936	147	4.0618079136618
22	3938	148	4.6711567426053
22	3939	149	4.9689846988463
22	3940	150	2.6752847611927
22	3942	151	6.1213492832094
22	3943	152	4.036359283861
22	3944	153	3.4612397264061
22	3945	154	4.7917119846707
22	3946	155	3.8069564423505
22	3947	156	5.8722750752341
22	3948	157	3.9141608292526
22	3949	158	3.5791599763904
22	3951	159	4.117661569188
22	3952	160	0.973
22	3954	161	0.973
22	3955	162	2.5743071662094
22	3957	163	3.9302011704837
22	3959	164	2.6616794058482
22	3961	165	4.1176531069577
22	3962	166	2.2777823691938
22	3964	167	3.8722251375848
22	3965	168	3.0104944286944
22	3967	169	3.3338732459936
22	3968	170	0.973
22	3970	171	0.973
22	3971	172	1.7897821340791
22	3974	173	2.5514180507632
22	3976	174	2.602426097006
22	3978	175	2.5609283469254
22	3979	176	1.333334354208
22	3981	177	2.9159717319682
22	3982	178	2.1871086233509
22	3985	179	2.259946691215
22	3986	180	1.962831958503
22	3989	181	3.1128308061748
22	3991	182	0.973
22	3993	183	0.973
22	3995	184	0.973
22	3999	185	0.973
22	4000	186	0.973
22	4003	187	0.973
22	4004	188	0.973
22	4006	189	0.973
22	4007	190	0.973
22	4008	191	0.973
22	4009	192	0.973
22	4010	193	0.973
22	4011	194	0.973
22	4013	195	0.973
22	4014	196	0.973
22	4016	197	0.973
22	4018	198	0.973
22	4019	199	0.973
22	4021	200	0.973
22	4023	201	0.973
22	4024	202	0.973
22	4025	203	0.973
22	4026	204	0.973
22	4027	205	0.973
22	4028	206	0.973
22	4030	207	0.973
22	4031	208	0.973
22	4032	209	0.973
22	4033	210	0.973
22	4034	211	0.973
22	4036	212	0.973
22	4037	213	0.973
22	4039	214	0.973
22	4040	215	0.973
22	4042	216	0.973
22	4044	217	0.973
22	4046	218	0.973
22	4048	219	0.973
22	4051	220	0.973
22	4052	221	0.973
22	4055	222	0.973
22	4056	223	0.973
22	4058	224	0.973
22	4060	225	6.8635051208203
22	4061	226	10.490387631503
22	4065	227	15.118140039507
22	4068	228	15.540905781476
22	4069	229	2.1451618679087
22	4072	230	2.9013422449237
22	4073	231	2.1861374664645
22	4075	232	2.4080732352799
22	4077	233	1.854168252198
22	4078	234	3.155555063872
22	4079	235	2.3854805843468
22	4080	236	1.5786180110294
22	4081	237	2.7149507497823
22	4083	238	2.3635672580301
22	4084	239	2.1599248726471
22	4087	240	2.7736464952524
22	4089	241	1.5252105126893
22	4090	242	2.5410062010053
22	4092	243	2.9238540995192
22	4094	244	2.4003550159876
22	4095	245	1.3733346563263
22	4096	246	2.6098147208433
22	4097	247	2.6781540731155
22	4098	248	2.2199118876445
22	4099	249	2.2625366205335
22	4100	250	2.5891587651349
22	4101	251	1.605426923012
22	4102	252	3.3455416173815
22	4103	253	1.811326749428
22	4105	254	2.6915134024393
22	4107	255	2.2071250424378
22	4108	256	2.3459661538744
22	4110	257	2.1484638268082
22	4111	258	2.3178720527223
22	4113	259	2.2810651794285
22	4114	260	2.0272382529902
22	4117	261	2.3750460528037
22	4120	262	2.0089767585462
22	4124	263	2.8786615474131
22	4125	264	2.1052661026349
22	4127	265	2.1632786730997
22	4128	266	2.1941698842385
22	4130	267	2.8244204163002
22	4131	268	2.3769247225935
22	4133	269	0.973
22	4137	270	0.973
22	4138	271	0.973
22	4139	272	0.973
22	4141	273	0.973
22	4142	274	0.973
22	4143	275	0.973
22	4145	276	0.973
22	4147	277	0.973
22	4148	278	0.973
22	4149	279	0.973
22	4151	280	0.973
22	4153	281	0.973
22	4154	282	0.973
22	4156	283	0.973
22	4158	284	0.973
22	4160	285	0.973
22	4162	286	0.973
22	4163	287	0.973
22	4165	288	0.973
22	4166	289	0.973
22	4167	290	0.973
22	4169	291	0.973
22	4171	292	0.973
22	4172	293	0.973
22	4173	294	0.973
22	4174	295	0.973
22	4175	296	0.973
22	4177	297	0.973
22	4178	298	0.973
22	4179	299	0.973
22	4180	300	0.973
22	4181	301	0.973
22	4184	302	0.973
22	4186	303	0.973
22	4188	304	0.973
22	4191	305	0.973
22	4193	306	0.973
22	4194	307	0.973
22	4195	308	0.973
22	4196	309	0.973
22	4198	310	0.973
22	4200	311	0.973
22	4204	312	7.4284768141142
22	4206	313	10.968394546543
22	4207	314	16.880545395898
22	4210	315	14.087691306766
22	4211	316	2.4069508604908
22	4212	317	1.5913379311101
22	4213	318	0.973
22	4214	319	0.973
22	4216	320	2.1490278222117
22	4217	321	1.8620413917846
22	4218	322	2.7727580774921
22	4220	323	1.8792220273203
22	4222	324	2.1250332371995
22	4223	325	1.2091781000884
22	4224	326	2.3824317497038
22	4227	327	1.6103706659188
22	4229	328	2.6424459608677
22	4233	329	1.4340098769633
22	4234	330	1.9864254432752
22	4236	331	2.6904804348817
22	4237	332	1.825350831392
22	4238	333	2.017116143454
22	4240	334	1.699973131246
22	4242	335	2.4610175316511
22	4243	336	2.2006395977592
22	4244	337	1.6161976981181
22	4245	338	1.821792864664
22	4247	339	2.2648310016391
22	4248	340	2.4374321184346
22	4249	341	1.629678405746
22	4250	342	2.2944971456736
22	4253	343	2.0774868695154
22	4254	344	1.9089825457136
22	4256	345	1.9008819016029
22	4258	346	1.7275475094145
22	4259	347	1.7126024329496
22	4261	348	2.3310977879798
22	4262	349	2.3824014439772
22	4263	350	0.973
22	4264	351	0.973
22	4265	352	0.973
22	4267	353	0.973
22	4270	354	4.2447397034246
22	4273	355	13.776921346779
21	8	7	1.5433844677936
21	9	8	1.906565017047
21	10	9	1.519471729475
21	11	10	1.6968651114502
21	12	11	1.6353602788746
21	13	12	0.31710160579502
21	14	13	0.23715535696135
21	15	14	0.10047922233971
21	16	15	0.16823417899294
21	17	16	0.25646116396512
21	18	17	-0.75552636221033
21	19	18	-0.78434550182287
21	20	19	-0.7453649826825
21	21	20	-0.82611318301908
21	22	21	-0.61653452047246
21	23	22	-0.92594366080847
21	24	23	-1.1658491556272
21	25	24	-1.0057876948904
21	26	25	-1.0701061974048
21	27	26	-1.1492964841171
21	28	27	-0.86908320101683
21	29	28	-0.9519599714795
21	30	29	-0.42494193354693
21	31	30	0.86709954061193
21	32	31	1.1975392512353
21	33	32	-1.1297846332781
21	34	33	4.782901991164
21	35	34	1.3558842593948
21	36	35	1.2994451078746
21	37	36	1.3992096488332
21	38	37	1.7825021373973
21	39	38	1.4454132951865
21	40	39	0.68137422386854
21	41	40	-0.10345358291554
21	42	41	0.30316893052782
21	43	42	0.091633638567462
21	44	43	-0.084212155042746
21	45	44	0.29845281601474
21	46	45	-0.02901130340792
21	47	46	-0.060665825281585
21	48	47	0.26632068388516
21	49	48	-0.0052838976986607
21	50	49	-0.11867863165353
21	51	50	0.15468230115388
21	52	51	0.0063995763100699
21	53	52	-0.24402269731276
21	54	53	0.012944255201145
21	55	54	0.23742123496719
21	56	55	-0.18865332321264
21	57	56	0.04426813263446
21	58	57	0.069316493216903
21	59	58	0.14941888949834
21	60	59	3.9378031744156
21	61	60	1.3378424140253
21	62	61	0.05609283168689
21	63	62	0.069627099134646
21	64	63	-0.047850148895385
21	65	64	-0.65007548753542
21	66	65	-1.2864286084105
21	67	66	-1.233831444127
21	68	67	-1.3114269118493
21	69	68	-1.1902948614584
21	70	69	-1.2219214154754
21	71	70	-1.2063922600617
21	72	71	-1.0954602806317
21	73	72	-1.3725248281268
21	74	73	-1.1128917114789
21	75	74	-1.2588896682621
21	76	75	-1.2954501798431
21	77	76	-1.0507487783961
21	78	77	-1.371021721545
21	79	78	-1.0962584031937
21	80	79	-0.92836147040545
21	81	80	-0.98097236658922
21	82	81	0.024969905046924
21	83	82	1.138511376659
21	84	83	1.1358054544001
21	85	84	0.96371224261145
21	86	85	2.7741672134542
21	88	86	1.338376137352
21	89	87	1.5883351250033
21	91	88	-0.82049383931266
21	92	89	-0.99810939189869
21	94	90	-4.5
21	95	91	-4.5
21	97	92	-0.57677044218233
21	99	93	0
21	100	94	0
21	102	95	0
21	103	96	0
21	105	97	0
21	106	98	0
21	108	99	0
21	109	100	0
21	3537	101	0
21	3862	102	0
21	3863	103	0
21	3865	104	0
21	3867	105	0
21	3868	106	0
21	3869	107	0
21	3871	108	0
21	3872	109	0
21	3873	110	0
21	3874	111	0
21	3875	112	0
21	3876	113	0
21	3877	114	0
21	3878	115	0
21	3880	116	0
21	3881	117	0
21	3883	118	0
21	3884	119	0
21	3886	120	0
21	3887	121	0
21	3889	122	0
21	3890	123	0
21	3892	124	0
21	3893	125	0
21	3895	126	0
21	3896	127	0
21	3898	128	0
21	3900	129	0
21	3902	130	0
21	3904	131	0
21	3906	132	0
21	3908	133	5.0819271523596
21	3910	134	4.2898198396992
21	3912	135	4.2951285119914
21	3915	136	-0.017218736345459
21	3916	137	1.9453235469326
21	3919	138	4.0562499145605
21	3920	139	4.2999176241923
21	3923	140	3.6863062996858
21	3924	141	0.025488482927905
21	3927	142	-0.12402212946676
21	3928	143	0.03033663216047
21	3931	144	-0.060896135587246
21	3933	145	0.22458700274117
21	3934	146	-0.027164916517211
21	3936	147	-0.05044581159018
21	3938	148	0.039384787948801
21	3939	149	0.080614870199934
21	3940	150	-0.25448624608107
21	3942	151	0.2528465574421
21	3943	152	-0.056554968450218
21	3944	153	-0.13796766557731
21	3945	154	0.059744353694839
21	3946	155	-0.085046136155725
21	3947	156	0.21582271096297
21	3948	157	-0.074065606249498
21	3949	158	-0.1201000202354
21	3951	159	-0.037655617343262
21	3952	160	-2.2053305741306
21	3954	161	-3.2573610854149
21	3955	162	-0.10852897117845
21	3957	163	0.14178016711026
21	3959	164	-0.09348212501034
21	3961	165	0.17356460476294
21	3962	166	-0.1660412184149
21	3964	167	0.12915525411256
21	3965	168	-0.031229036767037
21	3967	169	0.028413540162148
21	3968	170	-1.4561011709069
21	3970	171	-4.0767961828894
21	3971	172	-0.13317638063803
21	3974	173	0.056600202322006
21	3976	174	0.067033985331655
21	3978	175	0.054774730801583
21	3979	176	-0.24698328919709
21	3981	177	0.14717801392078
21	3982	178	-0.034436597963797
21	3985	179	-0.015676640458402
21	3986	180	-0.088082025405022
21	3989	181	0.19410103328526
21	3991	182	-4.5
21	3993	183	-4.5
21	3995	184	-4.5
21	3999	185	-3.1172505313344
21	4000	186	0
21	4003	187	0
21	4004	188	0
21	4006	189	0
21	4007	190	0
21	4008	191	0
21	4009	192	0
21	4010	193	0
21	4011	194	0
21	4013	195	0
21	4014	196	0
21	4016	197	0
21	4018	198	0
21	4019	199	0
21	4021	200	0
21	4023	201	0
21	4024	202	0
21	4025	203	0
21	4026	204	0
21	4027	205	0
21	4028	206	0
21	4030	207	0
21	4031	208	0
21	4032	209	0
21	4033	210	0
21	4034	211	0
21	4036	212	0
21	4037	213	0
21	4039	214	0
21	4040	215	0
21	4042	216	0
21	4044	217	0
21	4046	218	0
21	4048	219	0
21	4051	220	0
21	4052	221	0
21	4055	222	0
21	4056	223	0
21	4058	224	0
21	4060	225	4.7826976801933
21	4061	226	4.134342786071
21	4065	227	4.1741539327055
21	4068	228	3.3404770141668
21	4069	229	-0.04108639506623
21	4072	230	0.1445563216228
21	4073	231	-0.03393422680907
21	4075	232	0.021186775099487
21	4077	233	-0.11515384307131
21	4078	234	0.20498781834729
21	4079	235	0.012248969227077
21	4080	236	-0.1854692617897
21	4081	237	0.097723802989346
21	4083	238	0.0092615507263716
21	4084	239	-0.040644265310839
21	4087	240	0.10949647014029
21	4089	241	-0.1985194162745
21	4090	242	0.056286780908703
21	4092	243	0.14682549677789
21	4094	244	0.015621733637527
21	4095	245	-0.23661002928391
21	4096	246	0.073638003747909
21	4097	247	0.087652217634023
21	4098	248	-0.026390927322208
21	4099	249	-0.015233634188771
21	4100	250	0.064549035578967
21	4101	251	-0.17800809158944
21	4102	252	0.25045767175965
21	4103	253	-0.12877023240551
21	4105	254	0.08896759919822
21	4107	255	-0.031090454682708
21	4108	256	0.0035367330722522
21	4110	257	-0.044601115798578
21	4111	258	-0.002046473128722
21	4113	259	-0.010946273030711
21	4114	260	-0.072724527660757
21	4117	261	0.014503572667017
21	4120	262	-0.075711817862466
21	4124	263	0.13886649334803
21	4125	264	-0.053718296969311
21	4127	265	-0.03801999692805
21	4128	266	-0.029365490498023
21	4130	267	0.12510039616376
21	4131	268	0.012434813976288
21	4133	269	-4.5
21	4137	270	-4.5
21	4138	271	-4.5
21	4139	272	-3.0515289000888
21	4141	273	0
21	4142	274	0
21	4143	275	0
21	4145	276	0
21	4147	277	0
21	4148	278	0
21	4149	279	0
21	4151	280	0
21	4153	281	0
21	4154	282	0
21	4156	283	0
21	4158	284	0
21	4160	285	0
21	4162	286	0
21	4163	287	0
21	4165	288	0
21	4166	289	0
21	4167	290	0
21	4169	291	0
21	4171	292	0
21	4172	293	0
21	4173	294	0
21	4174	295	0
21	4175	296	0
21	4177	297	0
21	4178	298	0
21	4179	299	0
21	4180	300	0
21	4181	301	0
21	4184	302	0
21	4186	303	0
21	4188	304	0
21	4191	305	0
21	4193	306	0
21	4194	307	0
21	4195	308	0
21	4196	309	0
21	4198	310	0
21	4200	311	0
21	4204	312	5.0164952228574
21	4206	313	4.2037907154287
21	4207	314	4.4978697821591
21	4210	315	2.9284649032011
21	4211	316	0.016368260588496
21	4212	317	-0.18307633599266
21	4213	318	-1.4604623131175
21	4214	319	-1.3645877220482
21	4216	320	0.042667157957331
21	4217	321	-0.043098396314308
21	4218	322	0.22317372780293
21	4220	323	-0.042825003014876
21	4222	324	0.029924790225923
21	4223	325	-0.24110323262401
21	4224	326	0.11190680137835
21	4227	327	-0.11876259927638
21	4229	328	0.18742723703384
21	4233	329	-0.17276369689964
21	4234	330	-0.0044749804493041
21	4236	331	0.20080651880242
21	4237	332	-0.057299031773582
21	4238	333	0.0004703389108176
21	4240	334	-0.092904551737011
21	4242	335	0.13263326203451
21	4243	336	0.052601942941546
21	4244	337	-0.11973901853897
21	4245	338	-0.056193503625691
21	4247	339	0.075404236856848
21	4248	340	0.12260912977159
21	4249	341	-0.11623044070788
21	4250	342	0.081164566865191
21	4253	343	0.015657156025991
21	4254	344	-0.033824014775455
21	4256	345	-0.035273919925094
21	4258	346	-0.085348040517419
21	4259	347	-0.087776090055705
21	4261	348	0.096955176796765
21	4262	349	0.10831269511953
21	4263	350	-0.41502466950299
21	4264	351	-3.4288994980674
21	4265	352	-3.1230404939812
21	4267	353	-2.4787626360141
21	4270	354	1.8662053577463
21	4273	355	4.5994427885395
20	7	6	4.1690756045535
20	8	7	5.7124600723471
20	9	8	7.6190250893942
20	10	9	9.1384968188692
20	11	10	10.835361930319
20	12	11	12.470722209194
20	13	12	12.787823814989
20	14	13	13.02497917195
20	15	14	13.12545839429
20	16	15	13.293692573283
20	17	16	13.550153737248
20	18	17	12.794627375038
20	19	18	12.010281873215
20	20	19	11.264916890532
20	21	20	10.438803707513
20	22	21	9.8222691870409
20	23	22	8.8963255262324
20	24	23	7.7304763706052
20	25	24	6.7246886757149
20	26	25	5.65458247831
20	27	26	4.5052859941929
20	28	27	3.6362027931761
20	29	28	2.6842428216966
20	30	29	2.2593008881497
20	31	30	3.1264004287616
20	32	31	4.3239396799969
20	33	32	3.1941550467187
20	34	33	7.9770570378828
20	35	34	9.3329412972775
20	36	35	10.632386405152
20	37	36	12.031596053985
20	38	37	13.814098191383
20	39	38	15.259511486569
20	40	39	15.940885710438
20	41	40	15.837432127522
20	42	41	16.14060105805
20	43	42	16.232234696617
20	44	43	16.148022541575
20	45	44	16.446475357589
20	46	45	16.417464054182
20	47	46	16.3567982289
20	48	47	16.623118912785
20	49	48	16.617835015086
20	50	49	16.499156383433
20	51	50	16.653838684587
20	52	51	16.660238260897
20	53	52	16.416215563584
20	54	53	16.429159818785
20	55	54	16.666581053752
20	56	55	16.47792773054
20	57	56	16.522195863174
20	58	57	16.591512356391
20	59	58	16.74093124589
20	60	59	20.678734420305
20	61	60	22.01657683433
20	62	61	22.072669666017
20	63	62	22.142296765152
20	64	63	22.094446616257
20	65	64	21.444371128721
20	66	65	20.157942520311
20	67	66	18.924111076184
20	68	67	17.612684164334
20	69	68	16.422389302876
20	70	69	15.200467887401
20	71	70	13.994075627339
20	72	71	12.898615346707
20	73	72	11.52609051858
20	74	73	10.413198807101
20	75	74	9.1543091388394
20	76	75	7.8588589589962
20	77	76	6.8081101806001
20	78	77	5.4370884590551
20	79	78	4.3408300558613
20	80	79	3.4124685854559
20	81	80	2.4314962188667
20	82	81	2.4564661239136
20	83	82	3.5949775005726
20	84	83	4.7307829549727
20	85	84	5.6944951975841
20	86	85	8.4686624110383
20	88	86	9.8070385483903
20	89	87	11.395373673394
20	91	88	10.574879834081
20	92	89	9.5767704421823
20	94	90	5.0767704421823
20	95	91	0.57677044218233
20	97	92	0
20	99	93	0
20	100	94	0
20	102	95	0
20	103	96	0
20	105	97	0
20	106	98	0
20	108	99	0
20	109	100	0
20	3537	101	0
20	3862	102	0
20	3863	103	0
20	3865	104	0
20	3867	105	0
20	3868	106	0
20	3869	107	0
20	3871	108	0
20	3872	109	0
20	3873	110	0
20	3874	111	0
20	3875	112	0
20	3876	113	0
20	3877	114	0
20	3878	115	0
20	3880	116	0
20	3881	117	0
20	3883	118	0
20	3884	119	0
20	3886	120	0
20	3887	121	0
20	3889	122	0
20	3890	123	0
20	3892	124	0
20	3893	125	0
20	3895	126	0
20	3896	127	0
20	3898	128	0
20	3900	129	0
20	3902	130	0
20	3904	131	0
20	3906	132	0
20	3908	133	5.0819271523596
20	3910	134	9.3717469920588
20	3912	135	13.66687550405
20	3915	136	13.649656767705
20	3916	137	15.594980314637
20	3919	138	19.651230229198
20	3920	139	23.95114785339
20	3923	140	27.637454153076
20	3924	141	27.662942636004
20	3927	142	27.538920506537
20	3928	143	27.569257138697
20	3931	144	27.50836100311
20	3933	145	27.732948005851
20	3934	146	27.705783089334
20	3936	147	27.655337277744
20	3938	148	27.694722065693
20	3939	149	27.775336935893
20	3940	150	27.520850689812
20	3942	151	27.773697247254
20	3943	152	27.717142278804
20	3944	153	27.579174613226
20	3945	154	27.638918966921
20	3946	155	27.553872830765
20	3947	156	27.769695541728
20	3948	157	27.695629935479
20	3949	158	27.575529915243
20	3951	159	27.5378742979
20	3952	160	25.332543723769
20	3954	161	22.075182638355
20	3955	162	21.966653667176
20	3957	163	22.108433834286
20	3959	164	22.014951709276
20	3961	165	22.188516314039
20	3962	166	22.022475095624
20	3964	167	22.151630349737
20	3965	168	22.12040131297
20	3967	169	22.148814853132
20	3968	170	20.692713682225
20	3970	171	16.615917499335
20	3971	172	16.482741118697
20	3974	173	16.539341321019
20	3976	174	16.606375306351
20	3978	175	16.661150037153
20	3979	176	16.414166747956
20	3981	177	16.561344761876
20	3982	178	16.526908163913
20	3985	179	16.511231523454
20	3986	180	16.423149498049
20	3989	181	16.617250531334
20	3991	182	12.117250531334
20	3993	183	7.6172505313344
20	3995	184	3.1172505313344
20	3999	185	0
20	4000	186	0
20	4003	187	0
20	4004	188	0
20	4006	189	0
20	4007	190	0
20	4008	191	0
20	4009	192	0
20	4010	193	0
20	4011	194	0
20	4013	195	0
20	4014	196	0
20	4016	197	0
20	4018	198	0
20	4019	199	0
20	4021	200	0
20	4023	201	0
20	4024	202	0
20	4025	203	0
20	4026	204	0
20	4027	205	0
20	4028	206	0
20	4030	207	0
20	4031	208	0
20	4032	209	0
20	4033	210	0
20	4034	211	0
20	4036	212	0
20	4037	213	0
20	4039	214	0
20	4040	215	0
20	4042	216	0
20	4044	217	0
20	4046	218	0
20	4048	219	0
20	4051	220	0
20	4052	221	0
20	4055	222	0
20	4056	223	0
20	4058	224	0
20	4060	225	4.7826976801933
20	4061	226	8.9170404662643
20	4065	227	13.09119439897
20	4068	228	16.431671413137
20	4069	229	16.39058501807
20	4072	230	16.535141339693
20	4073	231	16.501207112884
20	4075	232	16.522393887984
20	4077	233	16.407240044912
20	4078	234	16.61222786326
20	4079	235	16.624476832487
20	4080	236	16.439007570697
20	4081	237	16.536731373686
20	4083	238	16.545992924413
20	4084	239	16.505348659102
20	4087	240	16.614845129242
20	4089	241	16.416325712968
20	4090	242	16.472612493876
20	4092	243	16.619437990654
20	4094	244	16.635059724292
20	4095	245	16.398449695008
20	4096	246	16.472087698756
20	4097	247	16.55973991639
20	4098	248	16.533348989068
20	4099	249	16.518115354879
20	4100	250	16.582664390458
20	4101	251	16.404656298868
20	4102	252	16.655113970628
20	4103	253	16.526343738222
20	4105	254	16.615311337421
20	4107	255	16.584220882738
20	4108	256	16.58775761581
20	4110	257	16.543156500012
20	4111	258	16.541110026883
20	4113	259	16.530163753852
20	4114	260	16.457439226191
20	4117	261	16.471942798859
20	4120	262	16.396230980996
20	4124	263	16.535097474344
20	4125	264	16.481379177375
20	4127	265	16.443359180447
20	4128	266	16.413993689949
20	4130	267	16.539094086112
20	4131	268	16.551528900089
20	4133	269	12.051528900089
20	4137	270	7.5515289000888
20	4138	271	3.0515289000888
20	4139	272	0
20	4141	273	0
20	4142	274	0
20	4143	275	0
20	4145	276	0
20	4147	277	0
20	4148	278	0
20	4149	279	0
20	4151	280	0
20	4153	281	0
20	4154	282	0
20	4156	283	0
20	4158	284	0
20	4160	285	0
20	4162	286	0
20	4163	287	0
20	4165	288	0
20	4166	289	0
20	4167	290	0
20	4169	291	0
20	4171	292	0
20	4172	293	0
20	4173	294	0
20	4174	295	0
20	4175	296	0
20	4177	297	0
20	4178	298	0
20	4179	299	0
20	4180	300	0
20	4181	301	0
20	4184	302	0
20	4186	303	0
20	4188	304	0
20	4191	305	0
20	4193	306	0
20	4194	307	0
20	4195	308	0
20	4196	309	0
20	4198	310	0
20	4200	311	0
20	4204	312	5.0164952228574
20	4206	313	9.2202859382861
20	4207	314	13.718155720445
20	4210	315	16.646620623646
20	4211	316	16.662988884235
20	4212	317	16.479912548242
20	4213	318	15.019450235125
20	4214	319	13.654862513077
20	4216	320	13.697529671034
20	4217	321	13.65443127472
20	4218	322	13.877605002522
20	4220	323	13.834779999508
20	4222	324	13.864704789734
20	4223	325	13.62360155711
20	4224	326	13.735508358488
20	4227	327	13.616745759211
20	4229	328	13.804172996245
20	4233	329	13.631409299346
20	4234	330	13.626934318896
20	4236	331	13.827740837699
20	4237	332	13.770441805925
20	4238	333	13.770912144836
20	4240	334	13.678007593099
20	4242	335	13.810640855134
20	4243	336	13.863242798075
20	4244	337	13.743503779536
20	4245	338	13.68731027591
20	4247	339	13.762714512767
20	4248	340	13.885323642539
20	4249	341	13.769093201831
20	4250	342	13.850257768696
20	4253	343	13.865914924722
20	4254	344	13.832090909947
20	4256	345	13.796816990022
20	4258	346	13.711468949504
20	4259	347	13.623692859448
20	4261	348	13.720648036245
20	4262	349	13.828960731365
20	4263	350	13.413936061862
20	4264	351	9.9850365637944
20	4265	352	6.8619960698132
20	4267	353	4.383233433799
20	4270	354	6.2494387915454
20	4273	355	10.848881580085
19	6	5	1578.1418149509
19	7	6	1578.1418149509
19	8	7	1579.2033744948
19	9	8	1580.9428516254
19	10	9	1585.525902939
19	11	10	1591.5083350418
19	12	11	1598.6769965906
19	13	12	1606.9490733678
19	14	13	1616.0446792673
19	15	14	1625.3183082249
19	16	15	1634.7156759435
19	17	16	1644.2136679161
19	18	17	1654.5627130633
19	19	18	1667.1117647756
19	20	19	1676.4267561622
19	21	20	1683.9249721821
19	22	21	1691.0808285614
19	23	22	1694.8702908475
19	24	23	1696.2475469178
19	25	24	1697.2478689915
19	26	25	1697.972951808
19	27	26	1698.5487077376
19	28	27	1699.0226523327
19	29	28	1699.4011866339
19	30	29	1699.6904581422
19	31	30	1699.9032455496
19	32	31	1700.1540941745
19	33	32	1700.5108728101
19	34	33	1700.8863045126
19	35	34	1701.5176449604
19	36	35	1709.3288211999
19	37	36	1719.3215706162
19	38	37	1730.6663991408
19	39	38	1743.5328113325
19	40	39	1758.009586799
19	41	40	1773.671695062
19	42	41	1789.4793848749
19	43	42	1805.5081919301
19	44	43	1821.5961311795
19	45	44	1837.7295234734
19	46	45	1854.0190041717
19	47	46	1870.3333149394
19	48	47	1886.7339511281
19	49	48	1903.1312348731
19	50	49	1919.5835647155
19	51	50	1936.0204342455
19	52	51	1952.5042565614
19	53	52	1968.9615247799
19	54	53	1985.4081656989
19	55	54	2001.8627061592
19	56	55	2018.3376627062
19	57	56	2034.8299149666
19	58	57	2051.2928412408
19	59	58	2067.7776802778
19	60	59	2084.3033674899
19	61	60	2102.9623773191
19	62	61	2117.4363999562
19	63	62	2120.6168545606
19	64	63	2119.8737488044
19	65	64	2119.1291046068
19	66	65	2118.3930000477
19	67	66	2117.6952026561
19	68	67	2117.0387210865
19	69	68	2116.4233842902
19	70	69	2115.8480814565
19	71	70	2114.7258656053
19	72	71	2112.6815621583
19	73	72	2110.4711524909
19	74	73	2106.581780077
19	75	74	2103.0868773106
19	76	75	2099.9875854459
19	77	76	2096.7306916798
19	78	77	2093.0751722865
19	79	78	2090.019006826
19	80	79	2087.535029375
19	81	80	2085.5933079068
19	82	81	2084.1561603965
19	83	82	2083.0062400829
19	84	83	2081.4842501115
19	85	84	2079.3525937004
19	86	85	2077.1602930538
19	88	86	2072.491346621
19	89	87	2065.7768420652
19	91	88	2057.9825379457
19	92	89	2049.9065066576
19	94	90	2042.5637904676
19	95	91	2037.3803969221
19	97	92	2035.4814338079
19	99	93	2035.4721811702
19	100	94	2035.4721811702
19	102	95	2035.4721811702
19	103	96	2035.4721811702
19	105	97	2035.4721811702
19	106	98	2035.4721811702
19	108	99	2035.4721811702
19	109	100	2035.4721811702
19	3537	101	2035.4721811702
19	3862	102	2035.4721811702
19	3863	103	2035.4721811702
19	3865	104	2035.4721811702
19	3867	105	2035.4721811702
19	3868	106	2035.4721811702
19	3869	107	2035.4721811702
19	3871	108	2035.4721811702
19	3872	109	2035.4721811702
19	3873	110	2035.4721811702
19	3874	111	2035.4721811702
19	3875	112	2035.4721811702
19	3876	113	2035.4721811702
19	3877	114	2035.4721811702
19	3878	115	2035.4721811702
19	3880	116	2035.4721811702
19	3881	117	2035.4721811702
19	3883	118	2035.4721811702
19	3884	119	2035.4721811702
19	3886	120	2035.4721811702
19	3887	121	2035.4721811702
19	3889	122	2035.4721811702
19	3890	123	2035.4721811702
19	3892	124	2035.4721811702
19	3893	125	2035.4721811702
19	3895	126	2035.4721811702
19	3896	127	2035.4721811702
19	3898	128	2035.4721811702
19	3900	129	2035.4721811702
19	3902	130	2035.4721811702
19	3904	131	2035.4721811702
19	3906	132	2035.4721811702
19	3908	133	2035.4721811702
19	3910	134	2033.3710187608
19	3912	135	2028.0039899377
19	3915	136	2019.3687271439
19	3916	137	2009.2897825968
19	3919	138	2001.2160737794
19	3920	139	1988.2338659912
19	3923	140	1972.6373604862
19	3924	141	1954.4003540901
19	3927	142	1935.1055653356
19	3928	143	1915.8505683141
19	3931	144	1896.5604782393
19	3933	145	1877.2970177457
19	3934	146	1857.6246760953
19	3936	147	1837.8407301903
19	3938	148	1818.0366654899
19	3939	149	1798.2316600634
19	3940	150	1778.4373605717
19	3942	151	1759.0732341018
19	3943	152	1739.9481617678
19	3944	153	1720.57484705
19	3945	154	1701.2308930932
19	3946	155	1681.8830567319
19	3947	156	1662.5338211237
19	3948	157	1643.1839053603
19	3949	158	1623.839135319
19	3951	159	1604.5196575504
19	3952	160	1585.1896961462
19	3954	161	1566.357423638
19	3955	162	1550.1695808955
19	3957	163	1534.5390789006
19	3959	164	1518.8830405064
19	3961	165	1503.2132661603
19	3962	166	1488.4119363027
19	3964	167	1474.0084089777
19	3965	168	1459.5788873341
19	3967	169	1445.7455789326
19	3968	170	1433.0384860216
19	3970	171	1420.511638199
19	3971	172	1410.1859542802
19	3974	173	1403.1485553579
19	3976	174	1396.1182106463
19	3978	175	1389.138001048
19	3979	176	1384.0939298114
19	3981	177	1379.0551593648
19	3982	178	1374.4660813175
19	3985	179	1372.2008058326
19	3986	180	1369.3661229145
19	3989	181	1366.6211593067
19	3991	182	1363.6661163429
19	3993	183	1361.4896940961
19	3995	184	1359.9966853419
19	3999	185	1359.2897456056
19	4000	186	1359.1927899532
19	4003	187	1359.1927899532
19	4004	188	1359.1927899532
19	4006	189	1359.1927899532
19	4007	190	1359.1927899532
19	4008	191	1359.1927899532
19	4009	192	1359.1927899532
19	4010	193	1359.1927899532
19	4011	194	1359.1927899532
19	4013	195	1359.1927899532
19	4014	196	1359.1927899532
19	4016	197	1359.1927899532
19	4018	198	1359.1927899532
19	4019	199	1359.1927899532
19	4021	200	1359.1927899532
19	4023	201	1359.1927899532
19	4024	202	1359.1927899532
19	4025	203	1359.1927899532
19	4026	204	1359.1927899532
19	4027	205	1359.1927899532
19	4028	206	1359.1927899532
19	4030	207	1359.1927899532
19	4031	208	1359.1927899532
19	4032	209	1359.1927899532
19	4033	210	1359.1927899532
19	4034	211	1359.1927899532
19	4036	212	1359.1927899532
19	4037	213	1359.1927899532
19	4039	214	1359.1927899532
19	4040	215	1359.1927899532
19	4042	216	1359.1927899532
19	4044	217	1359.1927899532
19	4046	218	1359.1927899532
19	4048	219	1359.1927899532
19	4051	220	1359.1927899532
[...]
173	4625	612	1327.2314335164
173	4626	613	1325.81356603
173	4627	614	1324.3979476318
173	4628	615	1323.0336533152
173	4629	616	1321.7118614335
173	4630	617	1320.3898745403
173	4631	618	1319.0576669015
173	4632	619	1318.0789706297
173	4633	620	1320.4109838502
173	4634	621	1318.7092665657
173	4635	622	1316.4664682988
173	4636	623	1314.225311745
173	4637	624	1311.9814794147
173	4638	625	1308.3032528004
173	4639	626	1304.518338047
173	4640	627	1300.7372463522
173	4641	628	1296.7203598022
173	4642	629	1292.2414168129
173	4643	630	1287.7710525673
173	4644	631	1283.0491381586
173	4645	632	1278.0963663263
173	4646	633	1272.8464919878
173	4647	634	1266.6494054338
173	4648	635	1260.4584585605
173	4649	636	1254.4769385327
173	4650	637	1248.7002138803
173	4651	638	1242.784101814
173	4652	639	1235.9963997072
173	4653	640	1229.1990806712
173	4654	641	1222.4029357024
173	4655	642	1216.2798613813
173	4656	643	1226.2319919067
173	4657	644	1239.306061144
173	4658	645	1252.3780140318
173	4659	646	1265.4708555536
173	4660	647	1278.5498702433
173	4661	648	1291.6223470932
173	4662	649	1304.7019504588
173	4663	650	1317.7768071266
173	4664	651	1330.8397057988
173	4665	652	1343.9069715329
173	4666	653	1356.9959781319
173	4667	654	1370.0827903654
173	4668	655	1383.1176126711
173	4669	656	1395.9786628429
173	4670	657	1408.8424082818
173	4671	658	1421.7249236302
173	4672	659	1434.592856599
173	4673	660	1447.4628215088
173	4674	661	1460.3561908491
173	4675	662	1473.2733286293
173	4676	663	1486.178257362
173	4677	664	1499.0769984424
173	4678	665	1502.7798818797
173	4679	666	1496.831239989
173	4680	667	1490.8823788781
173	4681	668	1484.9328409005
173	4682	669	1478.9797445703
173	4683	670	1473.341378849
173	4684	671	1467.5272396859
173	4685	672	1461.7180525493
173	4686	673	1455.8918995885
173	4687	674	1450.2683136472
173	4688	675	1445.5790222893
173	4689	676	1441.8039817838
173	4690	677	1438.8798020883
173	4691	678	1436.7574038757
173	4692	679	1435.3440435836
173	4693	680	1434.3143777875
173	4694	681	1431.9992113393
172	54	53	2415.119688944
172	55	54	2415.119688944
172	56	55	2412.7239759678
172	57	56	2408.2614559061
172	58	57	2403.1999518985
172	59	58	2396.7601712313
172	60	59	2388.6671624481
172	61	60	2380.1738675814
172	62	61	2372.2044620631
172	63	62	2364.7238352121
172	64	63	2357.7645757355
172	65	64	2351.2952091228
172	66	65	2345.2709585552
172	67	66	2340.0990091147
172	68	67	2335.5759201747
172	69	68	2334.2820789113
172	70	69	2334.1353515938
172	71	70	2337.5871146776
172	72	71	2341.7937407087
172	73	72	2345.7069812547
172	74	73	2349.1816770133
172	75	74	2352.4496888224
172	76	75	2355.5310422905
172	77	76	2358.4653571496
172	78	77	2361.3555020544
172	79	78	2364.9632789042
172	80	79	2368.464284149
172	81	80	2371.832999891
172	82	81	2375.1116185319
172	83	82	2378.4391846408
172	84	83	2381.6490892621
172	85	84	2384.8182129601
172	86	85	2388.0541043136
172	88	86	2391.1523316032
172	89	87	2394.2970241539
172	91	88	2397.4866320707
172	92	89	2400.4174341785
172	94	90	2403.7454894049
172	95	91	2406.8262421201
172	97	92	2409.7334243371
172	99	93	2413.1680750559
172	100	94	2415.9204198347
172	102	95	2419.261151647
172	103	96	2422.6241328524
172	105	97	2424.9167200133
172	106	98	2429.1209736954
172	108	99	2431.2380431865
172	109	100	2432.6300756319
172	3537	101	2434.3849109922
172	3862	102	2436.4842528965
172	3863	103	2438.4598093251
172	3865	104	2439.5081035406
172	3867	105	2440.7097020211
172	3868	106	2441.9134388496
172	3869	107	2443.1171791101
172	3871	108	2444.3222623637
172	3872	109	2445.5254073981
172	3873	110	2446.7291023856
172	3874	111	2447.9333870009
172	3875	112	2449.1379717755
172	3876	113	2450.3406371741
172	3877	114	2449.6887347136
172	3878	115	2448.3632387256
172	3880	116	2447.0392761537
172	3881	117	2445.7152622472
172	3883	118	2444.3903814321
172	3884	119	2443.0650521074
172	3886	120	2441.7395733685
172	3887	121	2440.4282747336
172	3889	122	2439.3067010775
172	3890	123	2442.1158990328
172	3892	124	2443.2346226568
172	3893	125	2444.4565036923
172	3895	126	2445.7775989401
172	3896	127	2447.1000982673
172	3898	128	2448.4208516309
172	3900	129	2449.745908994
172	3902	130	2451.0685672119
172	3904	131	2452.3912841699
172	3906	132	2453.7119444459
172	3908	133	2452.9631906142
172	3910	134	2451.7604920319
172	3912	135	2450.5591263409
172	3915	136	2449.358469047
172	3916	137	2448.1568911069
172	3919	138	2447.0319285805
172	3920	139	2446.0777821615
172	3923	140	2445.3046629677
172	3924	141	2444.7125709987
172	3927	142	2444.3015062549
172	3928	143	2444.071468736
172	3931	144	2444.0177783229
172	3933	145	2444.0177783229
172	3934	146	2444.0177783229
172	3936	147	2444.0177783229
172	3938	148	2444.0177783229
172	3939	149	2444.0177783229
172	3940	150	2444.0177783229
172	3942	151	2444.0177783229
172	3943	152	2444.0177783229
172	3944	153	2444.0177783229
172	3945	154	2444.0177783229
172	3946	155	2444.0177783229
172	3947	156	2444.0177783229
172	3948	157	2444.0177783229
172	3949	158	2444.0177783229
172	3951	159	2444.0177783229
172	3952	160	2444.0177783229
172	3954	161	2444.0177783229
172	3955	162	2444.0177783229
172	3957	163	2444.0177783229
172	3959	164	2444.0177783229
172	3961	165	2444.0177783229
172	3962	166	2444.0177783229
172	3964	167	2444.0177783229
172	3965	168	2444.0177783229
172	3967	169	2444.0177783229
172	3968	170	2444.0177783229
172	3970	171	2444.0177783229
172	3971	172	2444.0177783229
172	3974	173	2444.0177783229
172	3976	174	2444.0177783229
172	3978	175	2444.0177783229
172	3979	176	2444.0177783229
172	3981	177	2444.0177783229
172	3982	178	2444.0177783229
172	3985	179	2444.0177783229
172	3986	180	2444.0177783229
172	3989	181	2444.0177783229
172	3991	182	2443.9064951551
172	3993	183	2443.6054959092
172	3995	184	2443.1482570143
172	3999	185	2442.5214087896
172	4000	186	2440.8788323959
172	4003	187	2439.1672964767
172	4004	188	2438.0625764162
172	4006	189	2436.8863844688
172	4007	190	2435.94769087
172	4008	191	2435.951797165
172	4009	192	2436.0567571778
172	4010	193	2436.1615563518
172	4011	194	2436.2663781132
172	4013	195	2436.3712628711
172	4014	196	2436.4761222359
172	4016	197	2436.5809501983
172	4018	198	2436.9120066684
172	4019	199	2437.2932699766
172	4021	200	2437.6639245119
172	4023	201	2438.0102401724
172	4024	202	2438.3325765684
172	4025	203	2437.6306026169
172	4026	204	2429.184779131
172	4027	205	2421.0099665371
172	4028	206	2413.1285876815
172	4030	207	2405.2245632304
172	4031	208	2397.3514192195
172	4032	209	2389.4735323583
172	4033	210	2383.0817367173
172	4034	211	2377.3723771621
172	4036	212	2371.5693796769
172	4037	213	2365.7938826471
172	4039	214	2360.8697180527
172	4040	215	2357.2028693699
172	4042	216	2354.6913886953
172	4044	217	2353.1203291237
172	4046	218	2352.273789014
172	4048	219	2351.8819442684
172	4051	220	2351.8738728162
172	4052	221	2351.8738728162
172	4055	222	2351.8738728162
172	4056	223	2351.8738728162
172	4058	224	2351.8738728162
172	4060	225	2351.8738728162
172	4061	226	2351.8738728162
172	4065	227	2351.8738728162
172	4068	228	2351.8738728162
172	4069	229	2351.8738728162
172	4072	230	2351.8738728162
172	4073	231	2351.8738728162
172	4075	232	2351.8738728162
172	4077	233	2351.8738728162
172	4078	234	2351.8738728162
172	4079	235	2351.8738728162
172	4080	236	2351.8738728162
172	4081	237	2351.8738728162
172	4083	238	2351.8738728162
172	4084	239	2351.8738728162
172	4087	240	2351.8738728162
172	4089	241	2351.8738728162
172	4090	242	2351.8738728162
172	4092	243	2351.8738728162
172	4094	244	2351.8738728162
172	4095	245	2351.8738728162
172	4096	246	2351.8738728162
172	4097	247	2351.8738728162
172	4098	248	2351.8738728162
172	4099	249	2351.8738728162
172	4100	250	2351.8738728162
172	4101	251	2351.8738728162
172	4102	252	2351.8738728162
172	4103	253	2351.8738728162
172	4105	254	2351.8738728162
172	4107	255	2351.8738728162
172	4108	256	2351.8738728162
172	4110	257	2351.8738728162
172	4111	258	2351.8738728162
172	4113	259	2351.8738728162
172	4114	260	2351.8738728162
172	4117	261	2351.8738728162
172	4120	262	2351.8738728162
172	4124	263	2350.7675057837
172	4125	264	2349.3073712263
172	4127	265	2348.5256848037
172	4128	266	2348.1695799039
172	4130	267	2348.0269685069
172	4131	268	2347.9753085731
172	4133	269	2347.9568690506
172	4137	270	2347.9502269303
172	4138	271	2347.947841536
172	4139	272	2347.9469869413
172	4141	273	2347.9466802618
172	4142	274	2347.9465697509
172	4143	275	2347.9465298245
172	4145	276	2347.9465156177
172	4147	277	2347.9311156376
172	4148	278	2347.4331762365
172	4149	279	2345.6835529802
172	4151	280	2342.4717538632
172	4153	281	2338.4693164531
172	4154	282	2334.1001136514
172	4156	283	2329.4208499269
172	4158	284	2324.5509620751
172	4160	285	2319.5143673918
172	4162	286	2314.3068856653
172	4163	287	2309.0221926743
172	4165	288	2303.7258971587
172	4166	289	2298.6715322047
172	4167	290	2293.5723189645
172	4169	291	2288.4086663802
172	4171	292	2283.1984806344
172	4172	293	2277.9568792146
172	4173	294	2272.9540602642
172	4174	295	2268.4982798458
172	4175	296	2264.5706847562
172	4177	297	2261.1267781589
172	4178	298	2257.935184496
172	4179	299	2254.8826331453
172	4180	300	2252.3238164837
172	4181	301	2249.8950343422
172	4184	302	2247.3870182334
172	4186	303	2245.4491137447
172	4188	304	2243.0932523406
172	4191	305	2240.9400263261
172	4193	306	2239.6166214499
172	4194	307	2238.9178246427
172	4195	308	2238.6057166493
172	4196	309	2238.4843011727
172	4198	310	2238.4401646456
172	4200	311	2238.4244742037
172	4204	312	2238.4187712697
172	4206	313	2238.4167235366
172	4207	314	2238.4160049482
172	4210	315	2238.41574487
172	4211	316	2238.41574487
172	4212	317	2238.41574487
172	4213	318	2238.41574487
172	4214	319	2238.41574487
172	4216	320	2238.41574487
172	4217	321	2238.41574487
172	4218	322	2238.41574487
172	4220	323	2238.41574487
172	4222	324	2238.41574487
172	4223	325	2238.41574487
172	4224	326	2238.41574487
172	4227	327	2238.41574487
172	4229	328	2238.41574487
172	4233	329	2238.41574487
172	4234	330	2238.41574487
172	4236	331	2238.41574487
172	4237	332	2238.41574487
172	4238	333	2238.41574487
172	4240	334	2238.41574487
172	4242	335	2238.41574487
172	4243	336	2238.41574487
172	4244	337	2238.41574487
172	4245	338	2238.41574487
172	4247	339	2238.41574487
172	4248	340	2238.41574487
172	4249	341	2238.41574487
172	4250	342	2238.41574487
172	4253	343	2238.41574487
172	4254	344	2238.41574487
172	4256	345	2238.41574487
172	4258	346	2238.41574487
172	4259	347	2238.41574487
172	4261	348	2238.41574487
172	4262	349	2238.41574487
172	4263	350	2238.41574487
172	4264	351	2238.41574487
172	4265	352	2238.41574487
172	4267	353	2238.41574487
172	4270	354	2238.41574487
172	4273	355	2238.41574487
172	4274	356	2238.41574487
172	4275	357	2238.41574487
172	4278	358	2238.41574487
172	4279	359	2237.449648891
172	4280	360	2235.1381067744
172	4281	361	2231.7611126464
172	4283	362	2227.6362569156
172	4284	363	2223.3859697417
172	4285	364	2219.1338314267
172	4287	365	2214.8996244497
172	4289	366	2210.6553484055
172	4290	367	2206.421426087
172	4291	368	2202.1608141123
172	4292	369	2197.9112695523
172	4294	370	2193.6802204354
172	4295	371	2189.8310682032
172	4298	372	2186.2434075542
172	4299	373	2183.3235540829
172	4301	374	2181.2789482796
172	4303	375	2179.9698415224
172	4304	376	2178.472345099
172	4306	377	2175.7159174745
172	4308	378	2171.8815080058
172	4309	379	2167.8454368935
172	4310	380	2163.8100415991
172	4311	381	2159.7725005852
172	4314	382	2155.6690350714
172	4315	383	2151.4940523349
172	4316	384	2147.295375692
172	4318	385	2143.113020872
172	4321	386	2138.919794967
172	4322	387	2134.7397648924
172	4324	388	2130.5644077397
172	4325	389	2126.4440804076
172	4327	390	2123.0313135282
172	4329	391	2120.4256044078
172	4330	392	2118.5646438153
172	4331	393	2117.3759455797
172	4332	394	2116.7036527927
172	4333	395	2116.3830206986
172	4336	396	2116.2502392672
172	4339	397	2116.2000352602
172	4340	398	2116.1818626726
172	4341	399	2116.1753331149
172	4342	400	2116.1729465509
172	4343	401	2116.1720832969
172	4345	402	2116.171765251
172	4347	403	2116.1716492596
172	4348	404	2116.1716070698
172	4351	405	2116.171591702
172	4353	406	2116.1715861708
172	4354	407	2116.1715841909
172	4355	408	2116.1715834769
172	4357	409	2116.1715832208
172	4358	410	2116.171583128
172	4360	411	2116.1715830951
172	4361	412	2116.1715830831
172	4362	413	2116.1715830789
172	4364	414	2116.1715830774
172	4365	415	2116.1715830774
172	4366	416	2116.1715830774
172	4370	417	2116.1715830774
172	4372	418	2116.1715830774
172	4373	419	2116.1715830774
172	4375	420	2116.1715830774
172	4377	421	2116.1715830774
172	4378	422	2116.1715830774
172	4379	423	2116.1715830774
172	4380	424	2116.1715830774
172	4382	425	2116.1715830774
172	4383	426	2116.1715830774
172	4384	427	2116.1715830774
172	4386	428	2116.1715830774
172	4387	429	2116.1715830774
172	4388	430	2116.1715830774
172	4390	431	2116.1715830774
172	4391	432	2116.1715830774
172	4393	433	2116.1715830774
172	4395	434	2116.1715830774
172	4396	435	2116.1715830774
172	4398	436	2116.1715830774
172	4399	437	2116.1715830774
172	4400	438	2116.1715830774
172	4402	439	2116.1715830774
172	4404	440	2116.1715830774
172	4405	441	2116.1715830774
172	4406	442	2116.1715830774
172	4407	443	2116.1715830774
172	4408	444	2116.1715830774
172	4410	445	2116.1715830774
172	4412	446	2116.1715830774
172	4414	447	2116.1715830774
172	4416	448	2116.1715830774
172	4419	449	2116.1715830774
172	4420	450	2116.1715830774
172	4421	451	2116.1715830774
172	4422	452	2116.1715830774
172	4424	453	2116.1715830774
172	4426	454	2116.1715830774
172	4427	455	2116.1715830774
172	4428	456	2116.1715830774
172	4430	457	2116.1715830774
172	4432	458	2115.3876168719
172	4433	459	2113.383012425
172	4436	460	2111.3087252375
172	4437	461	2109.9721790954
172	4438	462	2108.4450611302
172	4439	463	2104.0046280278
172	4441	464	2096.356551556
172	4442	465	2086.4826622019
172	4444	466	2074.3836817752
172	4446	467	2060.9671509631
172	4447	468	2047.4961230803
172	4449	469	2033.8204948859
172	4451	470	2020.0812598573
172	4452	471	2006.3313138643
172	4453	472	1992.5763861112
172	4454	473	1978.8019384036
172	4456	474	1964.9982250562
172	4457	475	1951.2018662455
172	4458	476	1937.4206248823
172	4460	477	1923.605616876
172	4462	478	1909.7747078815
172	4464	479	1895.9605866254
172	4465	480	1882.1677622888
172	4466	481	1868.3684862478
172	4468	482	1854.5521331602
172	4469	483	1840.8712620115
172	4471	484	1827.1827703222
172	4472	485	1813.4665638771
172	4474	486	1799.7703451068
172	4476	487	1786.0723824368
172	4477	488	1772.3966945779
172	4478	489	1758.7438491978
172	4480	490	1745.1323523632
172	4481	491	1731.5080068704
172	4483	492	1717.9139969812
172	4484	493	1704.2841963066
172	4485	494	1690.6548486331
172	4486	495	1677.0332434819
172	4489	496	1663.4034060161
172	4490	497	1651.100064875
172	4492	498	1641.2610386747
172	4493	499	1633.8862713546
172	4494	500	1628.9781614339
172	4496	501	1626.5396938502
172	4497	502	1626.2420390218
172	4498	503	1626.2420390218
172	4499	504	1626.2420390218
172	4501	505	1626.2420390218
172	4502	506	1626.2420390218
172	4504	507	1626.2420390218
172	4505	508	1626.2420390218
172	4507	509	1626.2420390218
172	4509	510	1626.2420390218
172	4510	511	1626.2420390218
172	4512	512	1626.2420390218
172	4514	513	1626.2420390218
172	4515	514	1626.2420390218
172	4516	515	1626.2420390218
172	4517	516	1626.2420390218
172	4519	517	1626.2420390218
172	4520	518	1626.2420390218
172	4522	519	1626.2420390218
172	4524	520	1626.2420390218
172	4526	521	1626.2420390218
172	4527	522	1626.2420390218
172	4528	523	1626.2420390218
172	4529	524	1626.2420390218
172	4531	525	1626.2420390218
172	4532	526	1626.2420390218
172	4534	527	1626.2420390218
172	4535	528	1626.2420390218
172	4537	529	1626.2420390218
172	4539	530	1626.2420390218
172	4540	531	1626.2420390218
172	4541	532	1626.2420390218
172	4542	533	1626.2420390218
172	4543	534	1626.2420390218
172	4544	535	1626.2420390218
172	4545	536	1626.2420390218
172	4546	537	1626.2420390218
172	4547	538	1626.2420390218
172	4549	539	1626.2420390218
172	4550	540	1624.7454206423
172	4552	541	1620.9033315816
172	4553	542	1614.7855478426
172	4554	543	1607.2485854573
172	4555	544	1601.2716232552
172	4556	545	1596.966860089
172	4557	546	1594.1569974502
172	4558	547	1591.6326146236
172	4560	548	1586.6346268787
172	4561	549	1579.2456199737
172	4562	550	1569.2607628584
172	4563	551	1556.9398908132
172	4564	552	1543.1712457973
172	4565	553	1529.3744552017
172	4566	554	1515.556612331
172	4567	555	1501.7639174003
172	4568	556	1487.9816814761
172	4569	557	1474.1917495138
172	4570	558	1460.3924728213
172	4571	559	1446.6051269912
172	4572	560	1432.7826119947
172	4573	561	1418.9818034694
172	4575	562	1405.1629635496
172	4576	563	1391.367134792
172	4577	564	1378.1182008859
172	4578	565	1366.9108502746
172	4579	566	1357.7515563132
172	4580	567	1350.5212049535
172	4581	568	1345.1199643954
172	4582	569	1341.3641281746
172	4583	570	1338.9890899311
172	4584	571	1335.5564014189
172	4585	572	1331.5741405804
172	4586	573	1328.3056865123
172	4587	574	1321.8683962743
172	4588	575	1317.6661350917
172	4589	576	1313.174541595
172	4590	577	1309.345059028
172	4591	578	1306.0324320288
172	4592	579	1303.0501587336
172	4593	580	1300.5451614754
172	4594	581	1298.1891864621
172	4595	582	1295.9506967597
172	4596	583	1293.7078910255
172	4597	584	1291.5427652735
172	4598	585	1287.6915574939
172	4599	586	1282.2646639167
172	4600	587	1277.4673047765
172	4601	588	1273.8586770323
172	4602	589	1270.77572554
172	4603	590	1268.756884958
172	4604	591	1266.1720217962
172	4605	592	1261.4711356233
172	4606	593	1253.359099765
172	4607	594	1242.7877751717
172	4608	595	1229.9662416435
172	4609	596	1214.7496804339
172	4610	597	1198.2377818985
172	4611	598	1181.7497319577
172	4612	599	1165.2229766072
172	4613	600	1148.7227613756
172	4614	601	1132.2146969173
172	4615	602	1115.7106932275
172	4616	603	1099.1565421987
172	4617	604	1082.6190155572
172	4618	605	1066.0782210168
172	4619	606	1049.5643935563
172	4620	607	1033.0466089952
172	4621	608	1016.5413839261
172	4622	609	1000.0283964071
172	4623	610	983.50230067573
172	4624	611	966.99161344033
172	4625	612	950.47378560342
172	4626	613	933.94412518525
172	4627	614	917.44068490015
172	4628	615	900.91181121452
172	4629	616	884.3824923248
172	4630	617	867.85073476168
172	4631	618	851.31286355713
172	4632	619	834.72768462275
172	4633	620	817.57555068342
172	4634	621	801.0846214795
172	4635	622	784.63743418758
172	4636	623	768.20228612667
172	4637	624	751.74751570285
172	4638	625	735.59458242287
172	4639	626	719.41854162491
172	4640	627	703.25883989059
172	4641	628	687.17030438781
172	4642	629	671.15312861803
172	4643	630	655.16663134983
172	4644	631	639.25033094594
172	4645	632	623.39971253171
172	4646	633	607.63125441538
172	4647	634	592.20259533508
172	4648	635	576.78922199062
172	4649	636	561.29531400267
172	4650	637	545.7112959926
172	4651	638	530.19461640366
172	4652	639	515.03154993651
172	4653	640	499.84700018459
172	4654	641	484.66507318488
172	4655	642	469.89380389999
172	4656	643	460.43091036787
172	4657	644	455.92428190482
172	4658	645	451.4857394729
172	4659	646	447.040104368
172	4660	647	442.59916412283
172	4661	648	438.15859796479
172	4662	649	433.71513840102
172	4663	650	429.27443061711
172	4664	651	424.84373665974
172	4665	652	420.41017903516
172	4666	653	415.98161721334
172	4667	654	411.54329193535
172	4668	655	406.99325098901
172	4669	656	401.98106161982
172	4670	657	396.9678218551
172	4671	658	391.94726710941
172	4672	659	386.93239538674
172	4673	660	381.91673177888
172	4674	661	376.93109609291
172	4675	662	372.01960540388
172	4676	663	367.11275696836
172	4677	664	362.20826126705
172	4678	665	352.59911116364
172	4679	666	340.14215473097
172	4680	667	327.68473923253
172	4681	668	315.22590631852
172	4682	669	302.75962191448
172	4683	670	290.15141430637
172	4684	671	277.60957876034
172	4685	672	265.07842536282
172	4686	673	252.57775538426
172	4687	674	241.56271554483
172	4688	675	232.37769878516
172	4689	676	224.98344501143
172	4690	677	219.25579077483
172	4691	678	215.09860332927
172	4692	679	212.33022384963
172	4693	680	210.313395106
172	4694	681	206.43109458347
