version 2
run debug-0-20161222-11:07:01-2362
attr configname debug
attr datetime 20161222-11:07:01
attr experiment debug
attr inifile omnetpp.ini
attr iterationvars ""
attr iterationvars2 $repetition=0
attr measurement ""
attr network RSUExampleScenario
attr processid 2362
attr repetition 0
attr replication #0
attr resultdir results
attr runnumber 0
attr seedset 0
param **.coreDebug false
param **.debug false
param *.**.nic.mac1609_4.bitrate 27Mbps
param *.**.nic.mac1609_4.txPower 20mW
param *.**.nic.mac1609_4.useServiceChannel false
param *.**.nic.phy80211p.analogueModels "xmldoc(\"config.xml\")"
param *.**.nic.phy80211p.decider "xmldoc(\"config.xml\")"
param *.**.nic.phy80211p.sensitivity -89dBm
param *.**.nic.phy80211p.thermalNoise -110dBm
param *.**.nic.phy80211p.usePropagationDelay true
param *.**.nic.phy80211p.useThermalNoise true
param *.annotations.draw false
param *.connectionManager.alpha 2.0
param *.connectionManager.carrierFrequency "5.890e9 Hz"
param *.connectionManager.pMax 10mW
param *.connectionManager.sat -89dBm
param *.connectionManager.sendDirect true
param *.manager.autoShutdown true
param *.manager.host "\"localhost\""
param *.manager.launchConfig "xmldoc(\"erlangen.launchd.xml\")"
param *.manager.margin 25
param *.manager.moduleDisplayString "\"\""
param *.manager.moduleName "\"node\""
param *.manager.moduleType "\"org.car2x.veins.nodes.Car\""
param *.manager.port 9999
param *.manager.updateInterval 1s
param *.node[*].appl.beaconInterval 1s
param *.node[*].appl.beaconPriority 3
param *.node[*].appl.dataOnSch false
param *.node[*].appl.dataPriority 2
param *.node[*].appl.debug false
param *.node[*].appl.headerLength "256 bit"
param *.node[*].appl.maxOffset 0.005s
param *.node[*].appl.sendBeacons false
param *.node[*].appl.sendData true
param *.node[*].applType "\"TraCIDemo11p\""
param *.node[*].mobilityType "\"TraCIMobility\""
param *.node[*].mobilityType.debug true
param *.node[*].veinsmobility.accidentCount 5
param *.node[*].veinsmobility.accidentDuration 43s
param *.node[*].veinsmobility.accidentStart 85s
param *.node[*].veinsmobility.x 0
param *.node[*].veinsmobility.y 0
param *.node[*].veinsmobility.z 1.895
param *.node[*].veinsmobilityType "\"org.car2x.veins.modules.mobility.traci.TraCIMobility\""
param *.node[*].veinsmobilityType.debug true
param *.obstacles.debug false
param *.obstacles.obstacles "xmldoc(\"config.xml\", \"//AnalogueModel[@type='SimpleObstacleShadowing']/obstacles\")"
param *.playgroundSizeX 2500m
param *.playgroundSizeY 2500m
param *.playgroundSizeZ 50m
param *.rsu[*].appl.beaconInterval 1s
param *.rsu[*].appl.beaconPriority 3
param *.rsu[*].appl.dataOnSch false
param *.rsu[*].appl.dataPriority 2
param *.rsu[*].appl.debug false
param *.rsu[*].appl.headerLength "256 bit"
param *.rsu[*].appl.maxOffset 0.005s
param *.rsu[*].appl.sendBeacons false
param *.rsu[*].appl.sendData true
param *.rsu[*].applType "\"TraCIDemoRSU11p\""
param *.rsu[0].mobility.x 2000
param *.rsu[0].mobility.y 2000
param *.rsu[0].mobility.z 3
param *.world.use2D false
param *.world.useTorus false

scalar RSUExampleScenario.node[0].nic.phy80211p 	busyTime 	0
scalar RSUExampleScenario.node[0].nic.mac1609_4 	ReceivedUnicastPackets 	0
scalar RSUExampleScenario.node[0].nic.mac1609_4 	ReceivedBroadcasts 	0
scalar RSUExampleScenario.node[0].nic.mac1609_4 	SentPackets 	1
scalar RSUExampleScenario.node[0].nic.mac1609_4 	SNIRLostPackets 	0
scalar RSUExampleScenario.node[0].nic.mac1609_4 	RXTXLostPackets 	0
scalar RSUExampleScenario.node[0].nic.mac1609_4 	TotalLostPackets 	0
scalar RSUExampleScenario.node[0].nic.mac1609_4 	DroppedPacketsInMac 	0
scalar RSUExampleScenario.node[0].nic.mac1609_4 	TooLittleTime 	0
scalar RSUExampleScenario.node[0].nic.mac1609_4 	TimesIntoBackoff 	1
scalar RSUExampleScenario.node[0].nic.mac1609_4 	SlotsBackoff 	2
scalar RSUExampleScenario.node[0].nic.mac1609_4 	NumInternalContention 	0
scalar RSUExampleScenario.node[0].nic.mac1609_4 	totalBusyTime 	9.7e-05
scalar RSUExampleScenario.node[0].veinsmobility 	startTime 	1
scalar RSUExampleScenario.node[0].veinsmobility 	totalTime 	328
scalar RSUExampleScenario.node[0].veinsmobility 	stopTime 	330
scalar RSUExampleScenario.node[0].veinsmobility 	minSpeed 	0
scalar RSUExampleScenario.node[0].veinsmobility 	maxSpeed 	27.768710480146
scalar RSUExampleScenario.node[0].veinsmobility 	totalDistance 	3392.8749036238
scalar RSUExampleScenario.node[0].veinsmobility 	totalCO2Emission 	953.44696480018
scalar RSUExampleScenario.node[2].nic.phy80211p 	busyTime 	4.1941747572816e-06
scalar RSUExampleScenario.node[2].nic.mac1609_4 	ReceivedUnicastPackets 	0
scalar RSUExampleScenario.node[2].nic.mac1609_4 	ReceivedBroadcasts 	18
scalar RSUExampleScenario.node[2].nic.mac1609_4 	SentPackets 	1
scalar RSUExampleScenario.node[2].nic.mac1609_4 	SNIRLostPackets 	0
scalar RSUExampleScenario.node[2].nic.mac1609_4 	RXTXLostPackets 	0
scalar RSUExampleScenario.node[2].nic.mac1609_4 	TotalLostPackets 	0
scalar RSUExampleScenario.node[2].nic.mac1609_4 	DroppedPacketsInMac 	0
scalar RSUExampleScenario.node[2].nic.mac1609_4 	TooLittleTime 	0
scalar RSUExampleScenario.node[2].nic.mac1609_4 	TimesIntoBackoff 	1
scalar RSUExampleScenario.node[2].nic.mac1609_4 	SlotsBackoff 	4
scalar RSUExampleScenario.node[2].nic.mac1609_4 	NumInternalContention 	0
scalar RSUExampleScenario.node[2].nic.mac1609_4 	totalBusyTime 	0.001825
scalar RSUExampleScenario.node[2].veinsmobility 	startTime 	5
scalar RSUExampleScenario.node[2].veinsmobility 	totalTime 	411
scalar RSUExampleScenario.node[2].veinsmobility 	stopTime 	417
scalar RSUExampleScenario.node[2].veinsmobility 	minSpeed 	0
scalar RSUExampleScenario.node[2].veinsmobility 	maxSpeed 	27.777677725879
scalar RSUExampleScenario.node[2].veinsmobility 	totalDistance 	3392.0003742398
scalar RSUExampleScenario.node[2].veinsmobility 	totalCO2Emission 	988.61256736146
scalar RSUExampleScenario.node[3].nic.phy80211p 	busyTime 	4.18401937046e-06
scalar RSUExampleScenario.node[3].nic.mac1609_4 	ReceivedUnicastPackets 	0
scalar RSUExampleScenario.node[3].nic.mac1609_4 	ReceivedBroadcasts 	18
scalar RSUExampleScenario.node[3].nic.mac1609_4 	SentPackets 	1
scalar RSUExampleScenario.node[3].nic.mac1609_4 	SNIRLostPackets 	0
scalar RSUExampleScenario.node[3].nic.mac1609_4 	RXTXLostPackets 	0
scalar RSUExampleScenario.node[3].nic.mac1609_4 	TotalLostPackets 	0
scalar RSUExampleScenario.node[3].nic.mac1609_4 	DroppedPacketsInMac 	0
scalar RSUExampleScenario.node[3].nic.mac1609_4 	TooLittleTime 	0
scalar RSUExampleScenario.node[3].nic.mac1609_4 	TimesIntoBackoff 	1
scalar RSUExampleScenario.node[3].nic.mac1609_4 	SlotsBackoff 	0
scalar RSUExampleScenario.node[3].nic.mac1609_4 	NumInternalContention 	0
scalar RSUExampleScenario.node[3].nic.mac1609_4 	totalBusyTime 	0.001825
scalar RSUExampleScenario.node[3].veinsmobility 	startTime 	7
scalar RSUExampleScenario.node[3].veinsmobility 	totalTime 	412
scalar RSUExampleScenario.node[3].veinsmobility 	stopTime 	420
scalar RSUExampleScenario.node[3].veinsmobility 	minSpeed 	0
scalar RSUExampleScenario.node[3].veinsmobility 	maxSpeed 	27.750909077181
scalar RSUExampleScenario.node[3].veinsmobility 	totalDistance 	3400.008749202
scalar RSUExampleScenario.node[3].veinsmobility 	totalCO2Emission 	1019.7272474163
scalar RSUExampleScenario.node[4].nic.phy80211p 	busyTime 	4.1438848920863e-06
scalar RSUExampleScenario.node[4].nic.mac1609_4 	ReceivedUnicastPackets 	0
scalar RSUExampleScenario.node[4].nic.mac1609_4 	ReceivedBroadcasts 	18
scalar RSUExampleScenario.node[4].nic.mac1609_4 	SentPackets 	1
scalar RSUExampleScenario.node[4].nic.mac1609_4 	SNIRLostPackets 	0
scalar RSUExampleScenario.node[4].nic.mac1609_4 	RXTXLostPackets 	0
scalar RSUExampleScenario.node[4].nic.mac1609_4 	TotalLostPackets 	0
scalar RSUExampleScenario.node[4].nic.mac1609_4 	DroppedPacketsInMac 	0
scalar RSUExampleScenario.node[4].nic.mac1609_4 	TooLittleTime 	0
scalar RSUExampleScenario.node[4].nic.mac1609_4 	TimesIntoBackoff 	2
scalar RSUExampleScenario.node[4].nic.mac1609_4 	SlotsBackoff 	7
scalar RSUExampleScenario.node[4].nic.mac1609_4 	NumInternalContention 	0
scalar RSUExampleScenario.node[4].nic.mac1609_4 	totalBusyTime 	0.001825
scalar RSUExampleScenario.node[4].veinsmobility 	startTime 	8
scalar RSUExampleScenario.node[4].veinsmobility 	totalTime 	416
scalar RSUExampleScenario.node[4].veinsmobility 	stopTime 	425
scalar RSUExampleScenario.node[4].veinsmobility 	minSpeed 	0
scalar RSUExampleScenario.node[4].veinsmobility 	maxSpeed 	27.75182667057
scalar RSUExampleScenario.node[4].veinsmobility 	totalDistance 	3397.2717440116
scalar RSUExampleScenario.node[4].veinsmobility 	totalCO2Emission 	1007.7202841079
scalar RSUExampleScenario.node[5].nic.phy80211p 	busyTime 	4.3428571428571e-06
scalar RSUExampleScenario.node[5].nic.mac1609_4 	ReceivedUnicastPackets 	0
scalar RSUExampleScenario.node[5].nic.mac1609_4 	ReceivedBroadcasts 	17
scalar RSUExampleScenario.node[5].nic.mac1609_4 	SentPackets 	1
scalar RSUExampleScenario.node[5].nic.mac1609_4 	SNIRLostPackets 	2
scalar RSUExampleScenario.node[5].nic.mac1609_4 	RXTXLostPackets 	0
scalar RSUExampleScenario.node[5].nic.mac1609_4 	TotalLostPackets 	2
scalar RSUExampleScenario.node[5].nic.mac1609_4 	DroppedPacketsInMac 	0
scalar RSUExampleScenario.node[5].nic.mac1609_4 	TooLittleTime 	0
scalar RSUExampleScenario.node[5].nic.mac1609_4 	TimesIntoBackoff 	1
scalar RSUExampleScenario.node[5].nic.mac1609_4 	SlotsBackoff 	0
scalar RSUExampleScenario.node[5].nic.mac1609_4 	NumInternalContention 	0
scalar RSUExampleScenario.node[5].nic.mac1609_4 	totalBusyTime 	0.001825
scalar RSUExampleScenario.node[5].veinsmobility 	startTime 	10
scalar RSUExampleScenario.node[5].veinsmobility 	totalTime 	419
scalar RSUExampleScenario.node[5].veinsmobility 	stopTime 	430
scalar RSUExampleScenario.node[5].veinsmobility 	minSpeed 	0
scalar RSUExampleScenario.node[5].veinsmobility 	maxSpeed 	27.763528873604
scalar RSUExampleScenario.node[5].veinsmobility 	totalDistance 	3393.37013174
scalar RSUExampleScenario.node[5].veinsmobility 	totalCO2Emission 	1018.9052192133
scalar RSUExampleScenario.node[1].nic.phy80211p 	busyTime 	3.7345537757437e-06
scalar RSUExampleScenario.node[1].nic.mac1609_4 	ReceivedUnicastPackets 	0
scalar RSUExampleScenario.node[1].nic.mac1609_4 	ReceivedBroadcasts 	17
scalar RSUExampleScenario.node[1].nic.mac1609_4 	SentPackets 	1
scalar RSUExampleScenario.node[1].nic.mac1609_4 	SNIRLostPackets 	0
scalar RSUExampleScenario.node[1].nic.mac1609_4 	RXTXLostPackets 	0
scalar RSUExampleScenario.node[1].nic.mac1609_4 	TotalLostPackets 	0
scalar RSUExampleScenario.node[1].nic.mac1609_4 	DroppedPacketsInMac 	0
scalar RSUExampleScenario.node[1].nic.mac1609_4 	TooLittleTime 	0
scalar RSUExampleScenario.node[1].nic.mac1609_4 	TimesIntoBackoff 	2
scalar RSUExampleScenario.node[1].nic.mac1609_4 	SlotsBackoff 	2
scalar RSUExampleScenario.node[1].nic.mac1609_4 	NumInternalContention 	0
scalar RSUExampleScenario.node[1].nic.mac1609_4 	totalBusyTime 	0.001729
scalar RSUExampleScenario.node[1].veinsmobility 	startTime 	3
scalar RSUExampleScenario.node[1].veinsmobility 	totalTime 	436
scalar RSUExampleScenario.node[1].veinsmobility 	stopTime 	440
scalar RSUExampleScenario.node[1].veinsmobility 	minSpeed 	0
scalar RSUExampleScenario.node[1].veinsmobility 	maxSpeed 	27.778188040318
scalar RSUExampleScenario.node[1].veinsmobility 	totalDistance 	3395.7853420381
scalar RSUExampleScenario.node[1].veinsmobility 	totalCO2Emission 	976.86613618047
scalar RSUExampleScenario.node[6].nic.phy80211p 	busyTime 	3.991683991684e-06
scalar RSUExampleScenario.node[6].nic.mac1609_4 	ReceivedUnicastPackets 	0
scalar RSUExampleScenario.node[6].nic.mac1609_4 	ReceivedBroadcasts 	18
scalar RSUExampleScenario.node[6].nic.mac1609_4 	SentPackets 	1
scalar RSUExampleScenario.node[6].nic.mac1609_4 	SNIRLostPackets 	2
scalar RSUExampleScenario.node[6].nic.mac1609_4 	RXTXLostPackets 	0
scalar RSUExampleScenario.node[6].nic.mac1609_4 	TotalLostPackets 	2
scalar RSUExampleScenario.node[6].nic.mac1609_4 	DroppedPacketsInMac 	0
scalar RSUExampleScenario.node[6].nic.mac1609_4 	TooLittleTime 	0
scalar RSUExampleScenario.node[6].nic.mac1609_4 	TimesIntoBackoff 	1
scalar RSUExampleScenario.node[6].nic.mac1609_4 	SlotsBackoff 	1
scalar RSUExampleScenario.node[6].nic.mac1609_4 	NumInternalContention 	0
scalar RSUExampleScenario.node[6].nic.mac1609_4 	totalBusyTime 	0.001921
scalar RSUExampleScenario.node[6].veinsmobility 	startTime 	12
scalar RSUExampleScenario.node[6].veinsmobility 	totalTime 	480
scalar RSUExampleScenario.node[6].veinsmobility 	stopTime 	493
scalar RSUExampleScenario.node[6].veinsmobility 	minSpeed 	0
scalar RSUExampleScenario.node[6].veinsmobility 	maxSpeed 	27.779343798762
scalar RSUExampleScenario.node[6].veinsmobility 	totalDistance 	3395.8183933515
scalar RSUExampleScenario.node[6].veinsmobility 	totalCO2Emission 	957.43363124463
scalar RSUExampleScenario.node[7].nic.phy80211p 	busyTime 	3.855421686747e-06
scalar RSUExampleScenario.node[7].nic.mac1609_4 	ReceivedUnicastPackets 	0
scalar RSUExampleScenario.node[7].nic.mac1609_4 	ReceivedBroadcasts 	18
scalar RSUExampleScenario.node[7].nic.mac1609_4 	SentPackets 	1
scalar RSUExampleScenario.node[7].nic.mac1609_4 	SNIRLostPackets 	2
scalar RSUExampleScenario.node[7].nic.mac1609_4 	RXTXLostPackets 	0
scalar RSUExampleScenario.node[7].nic.mac1609_4 	TotalLostPackets 	2
scalar RSUExampleScenario.node[7].nic.mac1609_4 	DroppedPacketsInMac 	0
scalar RSUExampleScenario.node[7].nic.mac1609_4 	TooLittleTime 	0
scalar RSUExampleScenario.node[7].nic.mac1609_4 	TimesIntoBackoff 	2
scalar RSUExampleScenario.node[7].nic.mac1609_4 	SlotsBackoff 	4
scalar RSUExampleScenario.node[7].nic.mac1609_4 	NumInternalContention 	0
scalar RSUExampleScenario.node[7].nic.mac1609_4 	totalBusyTime 	0.001921
scalar RSUExampleScenario.node[7].veinsmobility 	startTime 	14
scalar RSUExampleScenario.node[7].veinsmobility 	totalTime 	497
scalar RSUExampleScenario.node[7].veinsmobility 	stopTime 	512
scalar RSUExampleScenario.node[7].veinsmobility 	minSpeed 	0
scalar RSUExampleScenario.node[7].veinsmobility 	maxSpeed 	27.737601034408
scalar RSUExampleScenario.node[7].veinsmobility 	totalDistance 	3396.6533861088
scalar RSUExampleScenario.node[7].veinsmobility 	totalCO2Emission 	1042.3169017184
scalar RSUExampleScenario.node[10].nic.phy80211p 	busyTime 	4.056338028169e-06
scalar RSUExampleScenario.node[10].nic.mac1609_4 	ReceivedUnicastPackets 	0
scalar RSUExampleScenario.node[10].nic.mac1609_4 	ReceivedBroadcasts 	17
scalar RSUExampleScenario.node[10].nic.mac1609_4 	SentPackets 	1
scalar RSUExampleScenario.node[10].nic.mac1609_4 	SNIRLostPackets 	4
scalar RSUExampleScenario.node[10].nic.mac1609_4 	RXTXLostPackets 	0
scalar RSUExampleScenario.node[10].nic.mac1609_4 	TotalLostPackets 	4
scalar RSUExampleScenario.node[10].nic.mac1609_4 	DroppedPacketsInMac 	0
scalar RSUExampleScenario.node[10].nic.mac1609_4 	TooLittleTime 	0
scalar RSUExampleScenario.node[10].nic.mac1609_4 	TimesIntoBackoff 	2
scalar RSUExampleScenario.node[10].nic.mac1609_4 	SlotsBackoff 	7
scalar RSUExampleScenario.node[10].nic.mac1609_4 	NumInternalContention 	0
scalar RSUExampleScenario.node[10].nic.mac1609_4 	totalBusyTime 	0.001921
scalar RSUExampleScenario.node[10].veinsmobility 	startTime 	19
scalar RSUExampleScenario.node[10].veinsmobility 	totalTime 	496
scalar RSUExampleScenario.node[10].veinsmobility 	stopTime 	516
scalar RSUExampleScenario.node[10].veinsmobility 	minSpeed 	0
scalar RSUExampleScenario.node[10].veinsmobility 	maxSpeed 	27.751222434836
scalar RSUExampleScenario.node[10].veinsmobility 	totalDistance 	3394.2936494117
scalar RSUExampleScenario.node[10].veinsmobility 	totalCO2Emission 	1028.1368977233
scalar RSUExampleScenario.node[9].nic.phy80211p 	busyTime 	3.8247011952191e-06
scalar RSUExampleScenario.node[9].nic.mac1609_4 	ReceivedUnicastPackets 	0
scalar RSUExampleScenario.node[9].nic.mac1609_4 	ReceivedBroadcasts 	18
scalar RSUExampleScenario.node[9].nic.mac1609_4 	SentPackets 	1
scalar RSUExampleScenario.node[9].nic.mac1609_4 	SNIRLostPackets 	2
scalar RSUExampleScenario.node[9].nic.mac1609_4 	RXTXLostPackets 	0
scalar RSUExampleScenario.node[9].nic.mac1609_4 	TotalLostPackets 	2
scalar RSUExampleScenario.node[9].nic.mac1609_4 	DroppedPacketsInMac 	0
scalar RSUExampleScenario.node[9].nic.mac1609_4 	TooLittleTime 	0
scalar RSUExampleScenario.node[9].nic.mac1609_4 	TimesIntoBackoff 	2
scalar RSUExampleScenario.node[9].nic.mac1609_4 	SlotsBackoff 	4
scalar RSUExampleScenario.node[9].nic.mac1609_4 	NumInternalContention 	0
scalar RSUExampleScenario.node[9].nic.mac1609_4 	totalBusyTime 	0.001921
scalar RSUExampleScenario.node[9].veinsmobility 	startTime 	17
scalar RSUExampleScenario.node[9].veinsmobility 	totalTime 	501
scalar RSUExampleScenario.node[9].veinsmobility 	stopTime 	519
scalar RSUExampleScenario.node[9].veinsmobility 	minSpeed 	0
scalar RSUExampleScenario.node[9].veinsmobility 	maxSpeed 	27.77740391098
scalar RSUExampleScenario.node[9].veinsmobility 	totalDistance 	3399.6104502426
scalar RSUExampleScenario.node[9].veinsmobility 	totalCO2Emission 	1053.0306972233
scalar RSUExampleScenario.node[8].nic.phy80211p 	busyTime 	3.8019801980198e-06
scalar RSUExampleScenario.node[8].nic.mac1609_4 	ReceivedUnicastPackets 	0
scalar RSUExampleScenario.node[8].nic.mac1609_4 	ReceivedBroadcasts 	18
scalar RSUExampleScenario.node[8].nic.mac1609_4 	SentPackets 	1
scalar RSUExampleScenario.node[8].nic.mac1609_4 	SNIRLostPackets 	2
scalar RSUExampleScenario.node[8].nic.mac1609_4 	RXTXLostPackets 	0
scalar RSUExampleScenario.node[8].nic.mac1609_4 	TotalLostPackets 	2
scalar RSUExampleScenario.node[8].nic.mac1609_4 	DroppedPacketsInMac 	0
scalar RSUExampleScenario.node[8].nic.mac1609_4 	TooLittleTime 	0
scalar RSUExampleScenario.node[8].nic.mac1609_4 	TimesIntoBackoff 	2
scalar RSUExampleScenario.node[8].nic.mac1609_4 	SlotsBackoff 	3
scalar RSUExampleScenario.node[8].nic.mac1609_4 	NumInternalContention 	0
scalar RSUExampleScenario.node[8].nic.mac1609_4 	totalBusyTime 	0.001921
scalar RSUExampleScenario.node[8].veinsmobility 	startTime 	16
scalar RSUExampleScenario.node[8].veinsmobility 	totalTime 	504
scalar RSUExampleScenario.node[8].veinsmobility 	stopTime 	521
scalar RSUExampleScenario.node[8].veinsmobility 	minSpeed 	0
scalar RSUExampleScenario.node[8].veinsmobility 	maxSpeed 	27.773561144182
scalar RSUExampleScenario.node[8].veinsmobility 	totalDistance 	3396.941648699
scalar RSUExampleScenario.node[8].veinsmobility 	totalCO2Emission 	1063.9387965206
scalar RSUExampleScenario.node[11].nic.phy80211p 	busyTime 	4.0079522862823e-06
scalar RSUExampleScenario.node[11].nic.mac1609_4 	ReceivedUnicastPackets 	0
scalar RSUExampleScenario.node[11].nic.mac1609_4 	ReceivedBroadcasts 	17
scalar RSUExampleScenario.node[11].nic.mac1609_4 	SentPackets 	1
scalar RSUExampleScenario.node[11].nic.mac1609_4 	SNIRLostPackets 	4
scalar RSUExampleScenario.node[11].nic.mac1609_4 	RXTXLostPackets 	0
scalar RSUExampleScenario.node[11].nic.mac1609_4 	TotalLostPackets 	4
scalar RSUExampleScenario.node[11].nic.mac1609_4 	DroppedPacketsInMac 	0
scalar RSUExampleScenario.node[11].nic.mac1609_4 	TooLittleTime 	0
scalar RSUExampleScenario.node[11].nic.mac1609_4 	TimesIntoBackoff 	2
scalar RSUExampleScenario.node[11].nic.mac1609_4 	SlotsBackoff 	7
scalar RSUExampleScenario.node[11].nic.mac1609_4 	NumInternalContention 	0
scalar RSUExampleScenario.node[11].nic.mac1609_4 	totalBusyTime 	0.001921
scalar RSUExampleScenario.node[11].veinsmobility 	startTime 	20
scalar RSUExampleScenario.node[11].veinsmobility 	totalTime 	502
scalar RSUExampleScenario.node[11].veinsmobility 	stopTime 	523
scalar RSUExampleScenario.node[11].veinsmobility 	minSpeed 	0
scalar RSUExampleScenario.node[11].veinsmobility 	maxSpeed 	27.749026262658
scalar RSUExampleScenario.node[11].veinsmobility 	totalDistance 	3396.9371108029
scalar RSUExampleScenario.node[11].veinsmobility 	totalCO2Emission 	1081.6086778907
scalar RSUExampleScenario.node[13].nic.phy80211p 	busyTime 	4.2137404580153e-06
scalar RSUExampleScenario.node[13].nic.mac1609_4 	ReceivedUnicastPackets 	0
scalar RSUExampleScenario.node[13].nic.mac1609_4 	ReceivedBroadcasts 	17
scalar RSUExampleScenario.node[13].nic.mac1609_4 	SentPackets 	1
scalar RSUExampleScenario.node[13].nic.mac1609_4 	SNIRLostPackets 	6
scalar RSUExampleScenario.node[13].nic.mac1609_4 	RXTXLostPackets 	0
scalar RSUExampleScenario.node[13].nic.mac1609_4 	TotalLostPackets 	6
scalar RSUExampleScenario.node[13].nic.mac1609_4 	DroppedPacketsInMac 	0
scalar RSUExampleScenario.node[13].nic.mac1609_4 	TooLittleTime 	0
scalar RSUExampleScenario.node[13].nic.mac1609_4 	TimesIntoBackoff 	1
scalar RSUExampleScenario.node[13].nic.mac1609_4 	SlotsBackoff 	2
scalar RSUExampleScenario.node[13].nic.mac1609_4 	NumInternalContention 	0
scalar RSUExampleScenario.node[13].nic.mac1609_4 	totalBusyTime 	0.002017021343
scalar RSUExampleScenario.node[13].veinsmobility 	startTime 	25
scalar RSUExampleScenario.node[13].veinsmobility 	totalTime 	523
scalar RSUExampleScenario.node[13].veinsmobility 	stopTime 	549
scalar RSUExampleScenario.node[13].veinsmobility 	minSpeed 	0
scalar RSUExampleScenario.node[13].veinsmobility 	maxSpeed 	27.745688289832
scalar RSUExampleScenario.node[13].veinsmobility 	totalDistance 	3391.0123473862
scalar RSUExampleScenario.node[13].veinsmobility 	totalCO2Emission 	1072.6847800042
scalar RSUExampleScenario.node[12].nic.phy80211p 	busyTime 	3.9329608938547e-06
scalar RSUExampleScenario.node[12].nic.mac1609_4 	ReceivedUnicastPackets 	0
scalar RSUExampleScenario.node[12].nic.mac1609_4 	ReceivedBroadcasts 	18
scalar RSUExampleScenario.node[12].nic.mac1609_4 	SentPackets 	1
scalar RSUExampleScenario.node[12].nic.mac1609_4 	SNIRLostPackets 	4
scalar RSUExampleScenario.node[12].nic.mac1609_4 	RXTXLostPackets 	1
scalar RSUExampleScenario.node[12].nic.mac1609_4 	TotalLostPackets 	5
scalar RSUExampleScenario.node[12].nic.mac1609_4 	DroppedPacketsInMac 	0
scalar RSUExampleScenario.node[12].nic.mac1609_4 	TooLittleTime 	0
scalar RSUExampleScenario.node[12].nic.mac1609_4 	TimesIntoBackoff 	1
scalar RSUExampleScenario.node[12].nic.mac1609_4 	SlotsBackoff 	4
scalar RSUExampleScenario.node[12].nic.mac1609_4 	NumInternalContention 	0
scalar RSUExampleScenario.node[12].nic.mac1609_4 	totalBusyTime 	0.002017
scalar RSUExampleScenario.node[12].veinsmobility 	startTime 	23
scalar RSUExampleScenario.node[12].veinsmobility 	totalTime 	536
scalar RSUExampleScenario.node[12].veinsmobility 	stopTime 	560
scalar RSUExampleScenario.node[12].veinsmobility 	minSpeed 	0
scalar RSUExampleScenario.node[12].veinsmobility 	maxSpeed 	27.755570773735
scalar RSUExampleScenario.node[12].veinsmobility 	totalDistance 	3393.3022921416
scalar RSUExampleScenario.node[12].veinsmobility 	totalCO2Emission 	1045.9529926381
scalar RSUExampleScenario.node[15].nic.phy80211p 	busyTime 	4.314606741573e-06
scalar RSUExampleScenario.node[15].nic.mac1609_4 	ReceivedUnicastPackets 	0
scalar RSUExampleScenario.node[15].nic.mac1609_4 	ReceivedBroadcasts 	16
scalar RSUExampleScenario.node[15].nic.mac1609_4 	SentPackets 	1
scalar RSUExampleScenario.node[15].nic.mac1609_4 	SNIRLostPackets 	8
scalar RSUExampleScenario.node[15].nic.mac1609_4 	RXTXLostPackets 	0
scalar RSUExampleScenario.node[15].nic.mac1609_4 	TotalLostPackets 	8
scalar RSUExampleScenario.node[15].nic.mac1609_4 	DroppedPacketsInMac 	0
scalar RSUExampleScenario.node[15].nic.mac1609_4 	TooLittleTime 	0
scalar RSUExampleScenario.node[15].nic.mac1609_4 	TimesIntoBackoff 	2
scalar RSUExampleScenario.node[15].nic.mac1609_4 	SlotsBackoff 	9
scalar RSUExampleScenario.node[15].nic.mac1609_4 	NumInternalContention 	0
scalar RSUExampleScenario.node[15].nic.mac1609_4 	totalBusyTime 	0.002017
scalar RSUExampleScenario.node[15].veinsmobility 	startTime 	28
scalar RSUExampleScenario.node[15].veinsmobility 	totalTime 	533
scalar RSUExampleScenario.node[15].veinsmobility 	stopTime 	562
scalar RSUExampleScenario.node[15].veinsmobility 	minSpeed 	0
scalar RSUExampleScenario.node[15].veinsmobility 	maxSpeed 	27.755628853943
scalar RSUExampleScenario.node[15].veinsmobility 	totalDistance 	3393.3100092383
scalar RSUExampleScenario.node[15].veinsmobility 	totalCO2Emission 	1125.1282860463
scalar RSUExampleScenario.node[16].nic.phy80211p 	busyTime 	4.314606741573e-06
scalar RSUExampleScenario.node[16].nic.mac1609_4 	ReceivedUnicastPackets 	0
scalar RSUExampleScenario.node[16].nic.mac1609_4 	ReceivedBroadcasts 	14
scalar RSUExampleScenario.node[16].nic.mac1609_4 	SentPackets 	1
scalar RSUExampleScenario.node[16].nic.mac1609_4 	SNIRLostPackets 	10
scalar RSUExampleScenario.node[16].nic.mac1609_4 	RXTXLostPackets 	0
scalar RSUExampleScenario.node[16].nic.mac1609_4 	TotalLostPackets 	10
scalar RSUExampleScenario.node[16].nic.mac1609_4 	DroppedPacketsInMac 	0
scalar RSUExampleScenario.node[16].nic.mac1609_4 	TooLittleTime 	0
scalar RSUExampleScenario.node[16].nic.mac1609_4 	TimesIntoBackoff 	1
scalar RSUExampleScenario.node[16].nic.mac1609_4 	SlotsBackoff 	3
scalar RSUExampleScenario.node[16].nic.mac1609_4 	NumInternalContention 	0
scalar RSUExampleScenario.node[16].nic.mac1609_4 	totalBusyTime 	0.002000318997
scalar RSUExampleScenario.node[16].veinsmobility 	startTime 	30
scalar RSUExampleScenario.node[16].veinsmobility 	totalTime 	533
scalar RSUExampleScenario.node[16].veinsmobility 	stopTime 	564
scalar RSUExampleScenario.node[16].veinsmobility 	minSpeed 	0
scalar RSUExampleScenario.node[16].veinsmobility 	maxSpeed 	27.646818479709
scalar RSUExampleScenario.node[16].veinsmobility 	totalDistance 	3388.6013328358
scalar RSUExampleScenario.node[16].veinsmobility 	totalCO2Emission 	1129.8808770468
scalar RSUExampleScenario.node[17].nic.phy80211p 	busyTime 	4.2985074626866e-06
scalar RSUExampleScenario.node[17].nic.mac1609_4 	ReceivedUnicastPackets 	0
scalar RSUExampleScenario.node[17].nic.mac1609_4 	ReceivedBroadcasts 	14
scalar RSUExampleScenario.node[17].nic.mac1609_4 	SentPackets 	1
scalar RSUExampleScenario.node[17].nic.mac1609_4 	SNIRLostPackets 	10
scalar RSUExampleScenario.node[17].nic.mac1609_4 	RXTXLostPackets 	0
scalar RSUExampleScenario.node[17].nic.mac1609_4 	TotalLostPackets 	10
scalar RSUExampleScenario.node[17].nic.mac1609_4 	DroppedPacketsInMac 	0
scalar RSUExampleScenario.node[17].nic.mac1609_4 	TooLittleTime 	0
scalar RSUExampleScenario.node[17].nic.mac1609_4 	TimesIntoBackoff 	2
scalar RSUExampleScenario.node[17].nic.mac1609_4 	SlotsBackoff 	7
scalar RSUExampleScenario.node[17].nic.mac1609_4 	NumInternalContention 	0
scalar RSUExampleScenario.node[17].nic.mac1609_4 	totalBusyTime 	0.001921
scalar RSUExampleScenario.node[17].veinsmobility 	startTime 	31
scalar RSUExampleScenario.node[17].veinsmobility 	totalTime 	535
scalar RSUExampleScenario.node[17].veinsmobility 	stopTime 	567
scalar RSUExampleScenario.node[17].veinsmobility 	minSpeed 	0
scalar RSUExampleScenario.node[17].veinsmobility 	maxSpeed 	27.721409319304
scalar RSUExampleScenario.node[17].veinsmobility 	totalDistance 	3396.7972419958
scalar RSUExampleScenario.node[17].veinsmobility 	totalCO2Emission 	1169.747204272
scalar RSUExampleScenario.node[14].nic.phy80211p 	busyTime 	4.2509225092251e-06
scalar RSUExampleScenario.node[14].nic.mac1609_4 	ReceivedUnicastPackets 	0
scalar RSUExampleScenario.node[14].nic.mac1609_4 	ReceivedBroadcasts 	16
scalar RSUExampleScenario.node[14].nic.mac1609_4 	SentPackets 	1
scalar RSUExampleScenario.node[14].nic.mac1609_4 	SNIRLostPackets 	8
scalar RSUExampleScenario.node[14].nic.mac1609_4 	RXTXLostPackets 	0
scalar RSUExampleScenario.node[14].nic.mac1609_4 	TotalLostPackets 	8
scalar RSUExampleScenario.node[14].nic.mac1609_4 	DroppedPacketsInMac 	0
scalar RSUExampleScenario.node[14].nic.mac1609_4 	TooLittleTime 	0
scalar RSUExampleScenario.node[14].nic.mac1609_4 	TimesIntoBackoff 	1
scalar RSUExampleScenario.node[14].nic.mac1609_4 	SlotsBackoff 	0
scalar RSUExampleScenario.node[14].nic.mac1609_4 	NumInternalContention 	0
scalar RSUExampleScenario.node[14].nic.mac1609_4 	totalBusyTime 	0.002017
scalar RSUExampleScenario.node[14].veinsmobility 	startTime 	27
scalar RSUExampleScenario.node[14].veinsmobility 	totalTime 	541
scalar RSUExampleScenario.node[14].veinsmobility 	stopTime 	569
scalar RSUExampleScenario.node[14].veinsmobility 	minSpeed 	0
scalar RSUExampleScenario.node[14].veinsmobility 	maxSpeed 	27.720864965888
scalar RSUExampleScenario.node[14].veinsmobility 	totalDistance 	3394.3286627426
scalar RSUExampleScenario.node[14].veinsmobility 	totalCO2Emission 	1138.3827949308
scalar RSUExampleScenario.node[18].nic.phy80211p 	busyTime 	4.0588235294118e-06
scalar RSUExampleScenario.node[18].nic.mac1609_4 	ReceivedUnicastPackets 	0
scalar RSUExampleScenario.node[18].nic.mac1609_4 	ReceivedBroadcasts 	13
scalar RSUExampleScenario.node[18].nic.mac1609_4 	SentPackets 	1
scalar RSUExampleScenario.node[18].nic.mac1609_4 	SNIRLostPackets 	10
scalar RSUExampleScenario.node[18].nic.mac1609_4 	RXTXLostPackets 	0
scalar RSUExampleScenario.node[18].nic.mac1609_4 	TotalLostPackets 	10
scalar RSUExampleScenario.node[18].nic.mac1609_4 	DroppedPacketsInMac 	0
scalar RSUExampleScenario.node[18].nic.mac1609_4 	TooLittleTime 	0
scalar RSUExampleScenario.node[18].nic.mac1609_4 	TimesIntoBackoff 	1
scalar RSUExampleScenario.node[18].nic.mac1609_4 	SlotsBackoff 	6
scalar RSUExampleScenario.node[18].nic.mac1609_4 	NumInternalContention 	0
scalar RSUExampleScenario.node[18].nic.mac1609_4 	totalBusyTime 	0.001825
scalar RSUExampleScenario.node[18].veinsmobility 	startTime 	33
scalar RSUExampleScenario.node[18].veinsmobility 	totalTime 	543
scalar RSUExampleScenario.node[18].veinsmobility 	stopTime 	577
scalar RSUExampleScenario.node[18].veinsmobility 	minSpeed 	0
scalar RSUExampleScenario.node[18].veinsmobility 	maxSpeed 	27.759899032293
scalar RSUExampleScenario.node[18].veinsmobility 	totalDistance 	3386.3601384584
scalar RSUExampleScenario.node[18].veinsmobility 	totalCO2Emission 	1250.9437865316
scalar RSUExampleScenario.node[19].nic.phy80211p 	busyTime 	3.6923076923077e-06
scalar RSUExampleScenario.node[19].nic.mac1609_4 	ReceivedUnicastPackets 	0
scalar RSUExampleScenario.node[19].nic.mac1609_4 	ReceivedBroadcasts 	13
scalar RSUExampleScenario.node[19].nic.mac1609_4 	SentPackets 	1
scalar RSUExampleScenario.node[19].nic.mac1609_4 	SNIRLostPackets 	8
scalar RSUExampleScenario.node[19].nic.mac1609_4 	RXTXLostPackets 	1
scalar RSUExampleScenario.node[19].nic.mac1609_4 	TotalLostPackets 	9
scalar RSUExampleScenario.node[19].nic.mac1609_4 	DroppedPacketsInMac 	0
scalar RSUExampleScenario.node[19].nic.mac1609_4 	TooLittleTime 	0
scalar RSUExampleScenario.node[19].nic.mac1609_4 	TimesIntoBackoff 	1
scalar RSUExampleScenario.node[19].nic.mac1609_4 	SlotsBackoff 	1
scalar RSUExampleScenario.node[19].nic.mac1609_4 	NumInternalContention 	0
scalar RSUExampleScenario.node[19].nic.mac1609_4 	totalBusyTime 	0.001729
scalar RSUExampleScenario.node[19].veinsmobility 	startTime 	34
scalar RSUExampleScenario.node[19].veinsmobility 	totalTime 	545
scalar RSUExampleScenario.node[19].veinsmobility 	stopTime 	580
scalar RSUExampleScenario.node[19].veinsmobility 	minSpeed 	0
scalar RSUExampleScenario.node[19].veinsmobility 	maxSpeed 	27.715476451851
scalar RSUExampleScenario.node[19].veinsmobility 	totalDistance 	3395.3132169045
scalar RSUExampleScenario.node[19].veinsmobility 	totalCO2Emission 	1238.9998290346
scalar RSUExampleScenario.node[33].nic.phy80211p 	busyTime 	5.5172413793103e-06
scalar RSUExampleScenario.node[33].nic.mac1609_4 	ReceivedUnicastPackets 	0
scalar RSUExampleScenario.node[33].nic.mac1609_4 	ReceivedBroadcasts 	24
scalar RSUExampleScenario.node[33].nic.mac1609_4 	SentPackets 	1
scalar RSUExampleScenario.node[33].nic.mac1609_4 	SNIRLostPackets 	6
scalar RSUExampleScenario.node[33].nic.mac1609_4 	RXTXLostPackets 	0
scalar RSUExampleScenario.node[33].nic.mac1609_4 	TotalLostPackets 	6
scalar RSUExampleScenario.node[33].nic.mac1609_4 	DroppedPacketsInMac 	0
scalar RSUExampleScenario.node[33].nic.mac1609_4 	TooLittleTime 	0
scalar RSUExampleScenario.node[33].nic.mac1609_4 	TimesIntoBackoff 	1
scalar RSUExampleScenario.node[33].nic.mac1609_4 	SlotsBackoff 	5
scalar RSUExampleScenario.node[33].nic.mac1609_4 	NumInternalContention 	0
scalar RSUExampleScenario.node[33].nic.mac1609_4 	totalBusyTime 	0.002689
scalar RSUExampleScenario.node[33].veinsmobility 	startTime 	60
scalar RSUExampleScenario.node[33].veinsmobility 	totalTime 	521
scalar RSUExampleScenario.node[33].veinsmobility 	stopTime 	582
scalar RSUExampleScenario.node[33].veinsmobility 	minSpeed 	0
scalar RSUExampleScenario.node[33].veinsmobility 	maxSpeed 	27.76664303978
scalar RSUExampleScenario.node[33].veinsmobility 	totalDistance 	3394.5180050085
scalar RSUExampleScenario.node[33].veinsmobility 	totalCO2Emission 	1306.9732624884
scalar RSUExampleScenario.node[39].nic.phy80211p 	busyTime 	7.672514619883e-06
scalar RSUExampleScenario.node[39].nic.mac1609_4 	ReceivedUnicastPackets 	0
scalar RSUExampleScenario.node[39].nic.mac1609_4 	ReceivedBroadcasts 	35
scalar RSUExampleScenario.node[39].nic.mac1609_4 	SentPackets 	1
scalar RSUExampleScenario.node[39].nic.mac1609_4 	SNIRLostPackets 	6
scalar RSUExampleScenario.node[39].nic.mac1609_4 	RXTXLostPackets 	0
scalar RSUExampleScenario.node[39].nic.mac1609_4 	TotalLostPackets 	6
scalar RSUExampleScenario.node[39].nic.mac1609_4 	DroppedPacketsInMac 	0
scalar RSUExampleScenario.node[39].nic.mac1609_4 	TooLittleTime 	0
scalar RSUExampleScenario.node[39].nic.mac1609_4 	TimesIntoBackoff 	2
scalar RSUExampleScenario.node[39].nic.mac1609_4 	SlotsBackoff 	6
scalar RSUExampleScenario.node[39].nic.mac1609_4 	NumInternalContention 	0
scalar RSUExampleScenario.node[39].nic.mac1609_4 	totalBusyTime 	0.003745048177
scalar RSUExampleScenario.node[39].veinsmobility 	startTime 	72
scalar RSUExampleScenario.node[39].veinsmobility 	totalTime 	512
scalar RSUExampleScenario.node[39].veinsmobility 	stopTime 	585
scalar RSUExampleScenario.node[39].veinsmobility 	minSpeed 	0
scalar RSUExampleScenario.node[39].veinsmobility 	maxSpeed 	27.711486499114
scalar RSUExampleScenario.node[39].veinsmobility 	totalDistance 	3403.8166223916
scalar RSUExampleScenario.node[39].veinsmobility 	totalCO2Emission 	1297.1837464417
scalar RSUExampleScenario.node[51].nic.phy80211p 	busyTime 	2.9941520467836e-06
scalar RSUExampleScenario.node[51].nic.mac1609_4 	ReceivedUnicastPackets 	0
scalar RSUExampleScenario.node[51].nic.mac1609_4 	ReceivedBroadcasts 	14
scalar RSUExampleScenario.node[51].nic.mac1609_4 	SentPackets 	1
scalar RSUExampleScenario.node[51].nic.mac1609_4 	SNIRLostPackets 	2
scalar RSUExampleScenario.node[51].nic.mac1609_4 	RXTXLostPackets 	0
scalar RSUExampleScenario.node[51].nic.mac1609_4 	TotalLostPackets 	2
scalar RSUExampleScenario.node[51].nic.mac1609_4 	DroppedPacketsInMac 	0
scalar RSUExampleScenario.node[51].nic.mac1609_4 	TooLittleTime 	0
scalar RSUExampleScenario.node[51].nic.mac1609_4 	TimesIntoBackoff 	1
scalar RSUExampleScenario.node[51].nic.mac1609_4 	SlotsBackoff 	5
scalar RSUExampleScenario.node[51].nic.mac1609_4 	NumInternalContention 	0
scalar RSUExampleScenario.node[51].nic.mac1609_4 	totalBusyTime 	0.001537
scalar RSUExampleScenario.node[51].veinsmobility 	startTime 	101
scalar RSUExampleScenario.node[51].veinsmobility 	totalTime 	512
scalar RSUExampleScenario.node[51].veinsmobility 	stopTime 	614
scalar RSUExampleScenario.node[51].veinsmobility 	minSpeed 	0
scalar RSUExampleScenario.node[51].veinsmobility 	maxSpeed 	27.745464549938
scalar RSUExampleScenario.node[51].veinsmobility 	totalDistance 	3400.6430869308
scalar RSUExampleScenario.node[51].veinsmobility 	totalCO2Emission 	1168.2846911129
scalar RSUExampleScenario.node[29].nic.phy80211p 	busyTime 	5.1154529307282e-06
scalar RSUExampleScenario.node[29].nic.mac1609_4 	ReceivedUnicastPackets 	0
scalar RSUExampleScenario.node[29].nic.mac1609_4 	ReceivedBroadcasts 	20
scalar RSUExampleScenario.node[29].nic.mac1609_4 	SentPackets 	1
scalar RSUExampleScenario.node[29].nic.mac1609_4 	SNIRLostPackets 	10
scalar RSUExampleScenario.node[29].nic.mac1609_4 	RXTXLostPackets 	0
scalar RSUExampleScenario.node[29].nic.mac1609_4 	TotalLostPackets 	10
scalar RSUExampleScenario.node[29].nic.mac1609_4 	DroppedPacketsInMac 	0
scalar RSUExampleScenario.node[29].nic.mac1609_4 	TooLittleTime 	0
scalar RSUExampleScenario.node[29].nic.mac1609_4 	TimesIntoBackoff 	1
scalar RSUExampleScenario.node[29].nic.mac1609_4 	SlotsBackoff 	1
scalar RSUExampleScenario.node[29].nic.mac1609_4 	NumInternalContention 	0
scalar RSUExampleScenario.node[29].nic.mac1609_4 	totalBusyTime 	0.002497
scalar RSUExampleScenario.node[29].veinsmobility 	startTime 	53
scalar RSUExampleScenario.node[29].veinsmobility 	totalTime 	562
scalar RSUExampleScenario.node[29].veinsmobility 	stopTime 	616
scalar RSUExampleScenario.node[29].veinsmobility 	minSpeed 	0
scalar RSUExampleScenario.node[29].veinsmobility 	maxSpeed 	16.663127341149
scalar RSUExampleScenario.node[29].veinsmobility 	totalDistance 	3250.6305229555
scalar RSUExampleScenario.node[29].veinsmobility 	totalCO2Emission 	1120.8536721737
scalar RSUExampleScenario.node[52].nic.phy80211p 	busyTime 	3.1627906976744e-06
scalar RSUExampleScenario.node[52].nic.mac1609_4 	ReceivedUnicastPackets 	0
scalar RSUExampleScenario.node[52].nic.mac1609_4 	ReceivedBroadcasts 	15
scalar RSUExampleScenario.node[52].nic.mac1609_4 	SentPackets 	1
scalar RSUExampleScenario.node[52].nic.mac1609_4 	SNIRLostPackets 	2
scalar RSUExampleScenario.node[52].nic.mac1609_4 	RXTXLostPackets 	0
scalar RSUExampleScenario.node[52].nic.mac1609_4 	TotalLostPackets 	2
scalar RSUExampleScenario.node[52].nic.mac1609_4 	DroppedPacketsInMac 	0
scalar RSUExampleScenario.node[52].nic.mac1609_4 	TooLittleTime 	0
scalar RSUExampleScenario.node[52].nic.mac1609_4 	TimesIntoBackoff 	1
scalar RSUExampleScenario.node[52].nic.mac1609_4 	SlotsBackoff 	3
scalar RSUExampleScenario.node[52].nic.mac1609_4 	NumInternalContention 	0
scalar RSUExampleScenario.node[52].nic.mac1609_4 	totalBusyTime 	0.001633
scalar RSUExampleScenario.node[52].veinsmobility 	startTime 	103
scalar RSUExampleScenario.node[52].veinsmobility 	totalTime 	515
scalar RSUExampleScenario.node[52].veinsmobility 	stopTime 	619
scalar RSUExampleScenario.node[52].veinsmobility 	minSpeed 	0
scalar RSUExampleScenario.node[52].veinsmobility 	maxSpeed 	27.762026231699
scalar RSUExampleScenario.node[52].veinsmobility 	totalDistance 	3405.2714041739
scalar RSUExampleScenario.node[52].veinsmobility 	totalCO2Emission 	1297.8178058875
scalar RSUExampleScenario.node[54].nic.phy80211p 	busyTime 	3.8843930635838e-06
scalar RSUExampleScenario.node[54].nic.mac1609_4 	ReceivedUnicastPackets 	0
scalar RSUExampleScenario.node[54].nic.mac1609_4 	ReceivedBroadcasts 	19
scalar RSUExampleScenario.node[54].nic.mac1609_4 	SentPackets 	1
scalar RSUExampleScenario.node[54].nic.mac1609_4 	SNIRLostPackets 	2
scalar RSUExampleScenario.node[54].nic.mac1609_4 	RXTXLostPackets 	0
scalar RSUExampleScenario.node[54].nic.mac1609_4 	TotalLostPackets 	2
scalar RSUExampleScenario.node[54].nic.mac1609_4 	DroppedPacketsInMac 	0
scalar RSUExampleScenario.node[54].nic.mac1609_4 	TooLittleTime 	0
scalar RSUExampleScenario.node[54].nic.mac1609_4 	TimesIntoBackoff 	1
scalar RSUExampleScenario.node[54].nic.mac1609_4 	SlotsBackoff 	5
scalar RSUExampleScenario.node[54].nic.mac1609_4 	NumInternalContention 	0
scalar RSUExampleScenario.node[54].nic.mac1609_4 	totalBusyTime 	0.002017
scalar RSUExampleScenario.node[54].veinsmobility 	startTime 	108
scalar RSUExampleScenario.node[54].veinsmobility 	totalTime 	518
scalar RSUExampleScenario.node[54].veinsmobility 	stopTime 	627
scalar RSUExampleScenario.node[54].veinsmobility 	minSpeed 	0
scalar RSUExampleScenario.node[54].veinsmobility 	maxSpeed 	27.724860998681
scalar RSUExampleScenario.node[54].veinsmobility 	totalDistance 	3398.7913360956
scalar RSUExampleScenario.node[54].veinsmobility 	totalCO2Emission 	1284.7901202572
scalar RSUExampleScenario.node[58].nic.phy80211p 	busyTime 	3.9298245614035e-06
scalar RSUExampleScenario.node[58].nic.mac1609_4 	ReceivedUnicastPackets 	0
scalar RSUExampleScenario.node[58].nic.mac1609_4 	ReceivedBroadcasts 	19
scalar RSUExampleScenario.node[58].nic.mac1609_4 	SentPackets 	1
scalar RSUExampleScenario.node[58].nic.mac1609_4 	SNIRLostPackets 	2
scalar RSUExampleScenario.node[58].nic.mac1609_4 	RXTXLostPackets 	0
scalar RSUExampleScenario.node[58].nic.mac1609_4 	TotalLostPackets 	2
scalar RSUExampleScenario.node[58].nic.mac1609_4 	DroppedPacketsInMac 	0
scalar RSUExampleScenario.node[58].nic.mac1609_4 	TooLittleTime 	0
scalar RSUExampleScenario.node[58].nic.mac1609_4 	TimesIntoBackoff 	1
scalar RSUExampleScenario.node[58].nic.mac1609_4 	SlotsBackoff 	7
scalar RSUExampleScenario.node[58].nic.mac1609_4 	NumInternalContention 	0
scalar RSUExampleScenario.node[58].nic.mac1609_4 	totalBusyTime 	0.002017
scalar RSUExampleScenario.node[58].veinsmobility 	startTime 	117
scalar RSUExampleScenario.node[58].veinsmobility 	totalTime 	512
scalar RSUExampleScenario.node[58].veinsmobility 	stopTime 	630
scalar RSUExampleScenario.node[58].veinsmobility 	minSpeed 	0
scalar RSUExampleScenario.node[58].veinsmobility 	maxSpeed 	27.581020483785
scalar RSUExampleScenario.node[58].veinsmobility 	totalDistance 	3399.4602709873
scalar RSUExampleScenario.node[58].veinsmobility 	totalCO2Emission 	1187.3152467737
scalar RSUExampleScenario.node[57].nic.phy80211p 	busyTime 	3.84e-06
scalar RSUExampleScenario.node[57].nic.mac1609_4 	ReceivedUnicastPackets 	0
scalar RSUExampleScenario.node[57].nic.mac1609_4 	ReceivedBroadcasts 	19
scalar RSUExampleScenario.node[57].nic.mac1609_4 	SentPackets 	1
scalar RSUExampleScenario.node[57].nic.mac1609_4 	SNIRLostPackets 	2
scalar RSUExampleScenario.node[57].nic.mac1609_4 	RXTXLostPackets 	0
scalar RSUExampleScenario.node[57].nic.mac1609_4 	TotalLostPackets 	2
scalar RSUExampleScenario.node[57].nic.mac1609_4 	DroppedPacketsInMac 	0
scalar RSUExampleScenario.node[57].nic.mac1609_4 	TooLittleTime 	0
scalar RSUExampleScenario.node[57].nic.mac1609_4 	TimesIntoBackoff 	1
scalar RSUExampleScenario.node[57].nic.mac1609_4 	SlotsBackoff 	1
scalar RSUExampleScenario.node[57].nic.mac1609_4 	NumInternalContention 	0
scalar RSUExampleScenario.node[57].nic.mac1609_4 	totalBusyTime 	0.002017
scalar RSUExampleScenario.node[57].veinsmobility 	startTime 	114
scalar RSUExampleScenario.node[57].veinsmobility 	totalTime 	524
scalar RSUExampleScenario.node[57].veinsmobility 	stopTime 	639
scalar RSUExampleScenario.node[57].veinsmobility 	minSpeed 	0
scalar RSUExampleScenario.node[57].veinsmobility 	maxSpeed 	27.777857472515
scalar RSUExampleScenario.node[57].veinsmobility 	totalDistance 	3404.1507273463
scalar RSUExampleScenario.node[57].veinsmobility 	totalCO2Emission 	1197.2360474686
scalar RSUExampleScenario.node[27].nic.phy80211p 	busyTime 	5.027027027027e-06
scalar RSUExampleScenario.node[27].nic.mac1609_4 	ReceivedUnicastPackets 	0
scalar RSUExampleScenario.node[27].nic.mac1609_4 	ReceivedBroadcasts 	19
scalar RSUExampleScenario.node[27].nic.mac1609_4 	SentPackets 	1
scalar RSUExampleScenario.node[27].nic.mac1609_4 	SNIRLostPackets 	12
scalar RSUExampleScenario.node[27].nic.mac1609_4 	RXTXLostPackets 	0
scalar RSUExampleScenario.node[27].nic.mac1609_4 	TotalLostPackets 	12
scalar RSUExampleScenario.node[27].nic.mac1609_4 	DroppedPacketsInMac 	0
scalar RSUExampleScenario.node[27].nic.mac1609_4 	TooLittleTime 	0
scalar RSUExampleScenario.node[27].nic.mac1609_4 	TimesIntoBackoff 	1
scalar RSUExampleScenario.node[27].nic.mac1609_4 	SlotsBackoff 	4
scalar RSUExampleScenario.node[27].nic.mac1609_4 	NumInternalContention 	0
scalar RSUExampleScenario.node[27].nic.mac1609_4 	totalBusyTime 	0.002497
scalar RSUExampleScenario.node[27].veinsmobility 	startTime 	49
scalar RSUExampleScenario.node[27].veinsmobility 	totalTime 	591
scalar RSUExampleScenario.node[27].veinsmobility 	stopTime 	641
scalar RSUExampleScenario.node[27].veinsmobility 	minSpeed 	0
scalar RSUExampleScenario.node[27].veinsmobility 	maxSpeed 	16.66470652286
scalar RSUExampleScenario.node[27].veinsmobility 	totalDistance 	3354.46447438
scalar RSUExampleScenario.node[27].veinsmobility 	totalCO2Emission 	1117.5994814297
scalar RSUExampleScenario.node[28].nic.phy80211p 	busyTime 	4.8648648648649e-06
scalar RSUExampleScenario.node[28].nic.mac1609_4 	ReceivedUnicastPackets 	0
scalar RSUExampleScenario.node[28].nic.mac1609_4 	ReceivedBroadcasts 	20
scalar RSUExampleScenario.node[28].nic.mac1609_4 	SentPackets 	1
scalar RSUExampleScenario.node[28].nic.mac1609_4 	SNIRLostPackets 	10
scalar RSUExampleScenario.node[28].nic.mac1609_4 	RXTXLostPackets 	0
scalar RSUExampleScenario.node[28].nic.mac1609_4 	TotalLostPackets 	10
scalar RSUExampleScenario.node[28].nic.mac1609_4 	DroppedPacketsInMac 	0
scalar RSUExampleScenario.node[28].nic.mac1609_4 	TooLittleTime 	0
scalar RSUExampleScenario.node[28].nic.mac1609_4 	TimesIntoBackoff 	2
scalar RSUExampleScenario.node[28].nic.mac1609_4 	SlotsBackoff 	5
scalar RSUExampleScenario.node[28].nic.mac1609_4 	NumInternalContention 	0
scalar RSUExampleScenario.node[28].nic.mac1609_4 	totalBusyTime 	0.002497
scalar RSUExampleScenario.node[28].veinsmobility 	startTime 	51
scalar RSUExampleScenario.node[28].veinsmobility 	totalTime 	591
scalar RSUExampleScenario.node[28].veinsmobility 	stopTime 	643
scalar RSUExampleScenario.node[28].veinsmobility 	minSpeed 	0
scalar RSUExampleScenario.node[28].veinsmobility 	maxSpeed 	16.665104344543
scalar RSUExampleScenario.node[28].veinsmobility 	totalDistance 	3341.6319559757
scalar RSUExampleScenario.node[28].veinsmobility 	totalCO2Emission 	1087.1022906387
scalar RSUExampleScenario.node[60].nic.phy80211p 	busyTime 	3.7127071823204e-06
scalar RSUExampleScenario.node[60].nic.mac1609_4 	ReceivedUnicastPackets 	0
scalar RSUExampleScenario.node[60].nic.mac1609_4 	ReceivedBroadcasts 	19
scalar RSUExampleScenario.node[60].nic.mac1609_4 	SentPackets 	1
scalar RSUExampleScenario.node[60].nic.mac1609_4 	SNIRLostPackets 	2
scalar RSUExampleScenario.node[60].nic.mac1609_4 	RXTXLostPackets 	0
scalar RSUExampleScenario.node[60].nic.mac1609_4 	TotalLostPackets 	2
scalar RSUExampleScenario.node[60].nic.mac1609_4 	DroppedPacketsInMac 	0
scalar RSUExampleScenario.node[60].nic.mac1609_4 	TooLittleTime 	0
scalar RSUExampleScenario.node[60].nic.mac1609_4 	TimesIntoBackoff 	1
scalar RSUExampleScenario.node[60].nic.mac1609_4 	SlotsBackoff 	0
scalar RSUExampleScenario.node[60].nic.mac1609_4 	NumInternalContention 	0
scalar RSUExampleScenario.node[60].nic.mac1609_4 	totalBusyTime 	0.002017
scalar RSUExampleScenario.node[60].veinsmobility 	startTime 	121
scalar RSUExampleScenario.node[60].veinsmobility 	totalTime 	542
scalar RSUExampleScenario.node[60].veinsmobility 	stopTime 	664
scalar RSUExampleScenario.node[60].veinsmobility 	minSpeed 	0
scalar RSUExampleScenario.node[60].veinsmobility 	maxSpeed 	27.72448610073
scalar RSUExampleScenario.node[60].veinsmobility 	totalDistance 	3404.4707381666
scalar RSUExampleScenario.node[60].veinsmobility 	totalCO2Emission 	1259.9686365785
scalar RSUExampleScenario.node[30].nic.phy80211p 	busyTime 	4.7135842880524e-06
scalar RSUExampleScenario.node[30].nic.mac1609_4 	ReceivedUnicastPackets 	0
scalar RSUExampleScenario.node[30].nic.mac1609_4 	ReceivedBroadcasts 	20
scalar RSUExampleScenario.node[30].nic.mac1609_4 	SentPackets 	1
scalar RSUExampleScenario.node[30].nic.mac1609_4 	SNIRLostPackets 	10
scalar RSUExampleScenario.node[30].nic.mac1609_4 	RXTXLostPackets 	0
scalar RSUExampleScenario.node[30].nic.mac1609_4 	TotalLostPackets 	10
scalar RSUExampleScenario.node[30].nic.mac1609_4 	DroppedPacketsInMac 	0
scalar RSUExampleScenario.node[30].nic.mac1609_4 	TooLittleTime 	0
scalar RSUExampleScenario.node[30].nic.mac1609_4 	TimesIntoBackoff 	1
scalar RSUExampleScenario.node[30].nic.mac1609_4 	SlotsBackoff 	1
scalar RSUExampleScenario.node[30].nic.mac1609_4 	NumInternalContention 	0
scalar RSUExampleScenario.node[30].nic.mac1609_4 	totalBusyTime 	0.002497
scalar RSUExampleScenario.node[30].veinsmobility 	startTime 	55
scalar RSUExampleScenario.node[30].veinsmobility 	totalTime 	610
scalar RSUExampleScenario.node[30].veinsmobility 	stopTime 	666
scalar RSUExampleScenario.node[30].veinsmobility 	minSpeed 	0
scalar RSUExampleScenario.node[30].veinsmobility 	maxSpeed 	16.669644715562
scalar RSUExampleScenario.node[30].veinsmobility 	totalDistance 	3255.9260636192
scalar RSUExampleScenario.node[30].veinsmobility 	totalCO2Emission 	1207.023082835
scalar RSUExampleScenario.node[31].nic.phy80211p 	busyTime 	4.7058823529412e-06
scalar RSUExampleScenario.node[31].nic.mac1609_4 	ReceivedUnicastPackets 	0
scalar RSUExampleScenario.node[31].nic.mac1609_4 	ReceivedBroadcasts 	20
scalar RSUExampleScenario.node[31].nic.mac1609_4 	SentPackets 	1
scalar RSUExampleScenario.node[31].nic.mac1609_4 	SNIRLostPackets 	10
scalar RSUExampleScenario.node[31].nic.mac1609_4 	RXTXLostPackets 	0
scalar RSUExampleScenario.node[31].nic.mac1609_4 	TotalLostPackets 	10
scalar RSUExampleScenario.node[31].nic.mac1609_4 	DroppedPacketsInMac 	0
scalar RSUExampleScenario.node[31].nic.mac1609_4 	TooLittleTime 	0
scalar RSUExampleScenario.node[31].nic.mac1609_4 	TimesIntoBackoff 	2
scalar RSUExampleScenario.node[31].nic.mac1609_4 	SlotsBackoff 	5
scalar RSUExampleScenario.node[31].nic.mac1609_4 	NumInternalContention 	0
scalar RSUExampleScenario.node[31].nic.mac1609_4 	totalBusyTime 	0.002497
scalar RSUExampleScenario.node[31].veinsmobility 	startTime 	56
scalar RSUExampleScenario.node[31].veinsmobility 	totalTime 	611
scalar RSUExampleScenario.node[31].veinsmobility 	stopTime 	668
scalar RSUExampleScenario.node[31].veinsmobility 	minSpeed 	0
scalar RSUExampleScenario.node[31].veinsmobility 	maxSpeed 	16.66221629994
scalar RSUExampleScenario.node[31].veinsmobility 	totalDistance 	3247.4204713439
scalar RSUExampleScenario.node[31].veinsmobility 	totalCO2Emission 	1172.3858913947
scalar RSUExampleScenario.node[55].nic.phy80211p 	busyTime 	3.5935828877005e-06
scalar RSUExampleScenario.node[55].nic.mac1609_4 	ReceivedUnicastPackets 	0
scalar RSUExampleScenario.node[55].nic.mac1609_4 	ReceivedBroadcasts 	19
scalar RSUExampleScenario.node[55].nic.mac1609_4 	SentPackets 	1
scalar RSUExampleScenario.node[55].nic.mac1609_4 	SNIRLostPackets 	2
scalar RSUExampleScenario.node[55].nic.mac1609_4 	RXTXLostPackets 	0
scalar RSUExampleScenario.node[55].nic.mac1609_4 	TotalLostPackets 	2
scalar RSUExampleScenario.node[55].nic.mac1609_4 	DroppedPacketsInMac 	0
scalar RSUExampleScenario.node[55].nic.mac1609_4 	TooLittleTime 	0
scalar RSUExampleScenario.node[55].nic.mac1609_4 	TimesIntoBackoff 	2
scalar RSUExampleScenario.node[55].nic.mac1609_4 	SlotsBackoff 	5
scalar RSUExampleScenario.node[55].nic.mac1609_4 	NumInternalContention 	0
scalar RSUExampleScenario.node[55].nic.mac1609_4 	totalBusyTime 	0.002017
scalar RSUExampleScenario.node[55].veinsmobility 	startTime 	110
scalar RSUExampleScenario.node[55].veinsmobility 	totalTime 	560
scalar RSUExampleScenario.node[55].veinsmobility 	stopTime 	671
scalar RSUExampleScenario.node[55].veinsmobility 	minSpeed 	0
scalar RSUExampleScenario.node[55].veinsmobility 	maxSpeed 	27.773773064986
scalar RSUExampleScenario.node[55].veinsmobility 	totalDistance 	3401.0716366268
scalar RSUExampleScenario.node[55].veinsmobility 	totalCO2Emission 	1374.0193535266
scalar RSUExampleScenario.node[53].nic.phy80211p 	busyTime 	3.5555555555556e-06
scalar RSUExampleScenario.node[53].nic.mac1609_4 	ReceivedUnicastPackets 	0
scalar RSUExampleScenario.node[53].nic.mac1609_4 	ReceivedBroadcasts 	19
scalar RSUExampleScenario.node[53].nic.mac1609_4 	SentPackets 	1
scalar RSUExampleScenario.node[53].nic.mac1609_4 	SNIRLostPackets 	2
scalar RSUExampleScenario.node[53].nic.mac1609_4 	RXTXLostPackets 	0
scalar RSUExampleScenario.node[53].nic.mac1609_4 	TotalLostPackets 	2
scalar RSUExampleScenario.node[53].nic.mac1609_4 	DroppedPacketsInMac 	0
scalar RSUExampleScenario.node[53].nic.mac1609_4 	TooLittleTime 	0
scalar RSUExampleScenario.node[53].nic.mac1609_4 	TimesIntoBackoff 	1
scalar RSUExampleScenario.node[53].nic.mac1609_4 	SlotsBackoff 	2
scalar RSUExampleScenario.node[53].nic.mac1609_4 	NumInternalContention 	0
scalar RSUExampleScenario.node[53].nic.mac1609_4 	totalBusyTime 	0.002017
scalar RSUExampleScenario.node[53].veinsmobility 	startTime 	106
scalar RSUExampleScenario.node[53].veinsmobility 	totalTime 	566
scalar RSUExampleScenario.node[53].veinsmobility 	stopTime 	673
scalar RSUExampleScenario.node[53].veinsmobility 	minSpeed 	0
scalar RSUExampleScenario.node[53].veinsmobility 	maxSpeed 	27.694348954866
scalar RSUExampleScenario.node[53].veinsmobility 	totalDistance 	3407.4598447169
scalar RSUExampleScenario.node[53].veinsmobility 	totalCO2Emission 	1444.0210290214
scalar RSUExampleScenario.node[61].nic.phy80211p 	busyTime 	4.1663652802893e-06
scalar RSUExampleScenario.node[61].nic.mac1609_4 	ReceivedUnicastPackets 	0
scalar RSUExampleScenario.node[61].nic.mac1609_4 	ReceivedBroadcasts 	20
scalar RSUExampleScenario.node[61].nic.mac1609_4 	SentPackets 	1
scalar RSUExampleScenario.node[61].nic.mac1609_4 	SNIRLostPackets 	4
scalar RSUExampleScenario.node[61].nic.mac1609_4 	RXTXLostPackets 	0
scalar RSUExampleScenario.node[61].nic.mac1609_4 	TotalLostPackets 	4
scalar RSUExampleScenario.node[61].nic.mac1609_4 	DroppedPacketsInMac 	0
scalar RSUExampleScenario.node[61].nic.mac1609_4 	TooLittleTime 	0
scalar RSUExampleScenario.node[61].nic.mac1609_4 	TimesIntoBackoff 	1
scalar RSUExampleScenario.node[61].nic.mac1609_4 	SlotsBackoff 	7
scalar RSUExampleScenario.node[61].nic.mac1609_4 	NumInternalContention 	0
scalar RSUExampleScenario.node[61].nic.mac1609_4 	totalBusyTime 	0.002209485786
scalar RSUExampleScenario.node[61].veinsmobility 	startTime 	124
scalar RSUExampleScenario.node[61].veinsmobility 	totalTime 	552
scalar RSUExampleScenario.node[61].veinsmobility 	stopTime 	677
scalar RSUExampleScenario.node[61].veinsmobility 	minSpeed 	0
scalar RSUExampleScenario.node[61].veinsmobility 	maxSpeed 	27.768907138323
scalar RSUExampleScenario.node[61].veinsmobility 	totalDistance 	3405.8926966364
scalar RSUExampleScenario.node[61].veinsmobility 	totalCO2Emission 	1332.1873295544
scalar RSUExampleScenario.node[56].nic.phy80211p 	busyTime 	3.5121951219512e-06
scalar RSUExampleScenario.node[56].nic.mac1609_4 	ReceivedUnicastPackets 	0
scalar RSUExampleScenario.node[56].nic.mac1609_4 	ReceivedBroadcasts 	19
scalar RSUExampleScenario.node[56].nic.mac1609_4 	SentPackets 	1
scalar RSUExampleScenario.node[56].nic.mac1609_4 	SNIRLostPackets 	2
scalar RSUExampleScenario.node[56].nic.mac1609_4 	RXTXLostPackets 	0
scalar RSUExampleScenario.node[56].nic.mac1609_4 	TotalLostPackets 	2
scalar RSUExampleScenario.node[56].nic.mac1609_4 	DroppedPacketsInMac 	0
scalar RSUExampleScenario.node[56].nic.mac1609_4 	TooLittleTime 	0
scalar RSUExampleScenario.node[56].nic.mac1609_4 	TimesIntoBackoff 	1
scalar RSUExampleScenario.node[56].nic.mac1609_4 	SlotsBackoff 	4
scalar RSUExampleScenario.node[56].nic.mac1609_4 	NumInternalContention 	0
scalar RSUExampleScenario.node[56].nic.mac1609_4 	totalBusyTime 	0.002017
scalar RSUExampleScenario.node[56].veinsmobility 	startTime 	112
scalar RSUExampleScenario.node[56].veinsmobility 	totalTime 	573
scalar RSUExampleScenario.node[56].veinsmobility 	stopTime 	686
scalar RSUExampleScenario.node[56].veinsmobility 	minSpeed 	0
scalar RSUExampleScenario.node[56].veinsmobility 	maxSpeed 	27.700336660752
scalar RSUExampleScenario.node[56].veinsmobility 	totalDistance 	3412.8013838133
scalar RSUExampleScenario.node[56].veinsmobility 	totalCO2Emission 	1376.5954189843
scalar RSUExampleScenario.node[64].nic.phy80211p 	busyTime 	5.6774193548387e-06
scalar RSUExampleScenario.node[64].nic.mac1609_4 	ReceivedUnicastPackets 	0
scalar RSUExampleScenario.node[64].nic.mac1609_4 	ReceivedBroadcasts 	16
scalar RSUExampleScenario.node[64].nic.mac1609_4 	SentPackets 	1
scalar RSUExampleScenario.node[64].nic.mac1609_4 	SNIRLostPackets 	17
scalar RSUExampleScenario.node[64].nic.mac1609_4 	RXTXLostPackets 	0
scalar RSUExampleScenario.node[64].nic.mac1609_4 	TotalLostPackets 	17
scalar RSUExampleScenario.node[64].nic.mac1609_4 	DroppedPacketsInMac 	0
scalar RSUExampleScenario.node[64].nic.mac1609_4 	TooLittleTime 	0
scalar RSUExampleScenario.node[64].nic.mac1609_4 	TimesIntoBackoff 	1
scalar RSUExampleScenario.node[64].nic.mac1609_4 	SlotsBackoff 	2
scalar RSUExampleScenario.node[64].nic.mac1609_4 	NumInternalContention 	0
scalar RSUExampleScenario.node[64].nic.mac1609_4 	totalBusyTime 	0.002497
scalar RSUExampleScenario.node[64].veinsmobility 	startTime 	131
scalar RSUExampleScenario.node[64].veinsmobility 	totalTime 	557
scalar RSUExampleScenario.node[64].veinsmobility 	stopTime 	689
scalar RSUExampleScenario.node[64].veinsmobility 	minSpeed 	0
scalar RSUExampleScenario.node[64].veinsmobility 	maxSpeed 	27.64124067693
scalar RSUExampleScenario.node[64].veinsmobility 	totalDistance 	3407.0084518665
scalar RSUExampleScenario.node[64].veinsmobility 	totalCO2Emission 	1333.9120779213
scalar RSUExampleScenario.node[68].nic.phy80211p 	busyTime 	7.6660617059891e-06
scalar RSUExampleScenario.node[68].nic.mac1609_4 	ReceivedUnicastPackets 	0
scalar RSUExampleScenario.node[68].nic.mac1609_4 	ReceivedBroadcasts 	18
scalar RSUExampleScenario.node[68].nic.mac1609_4 	SentPackets 	1
scalar RSUExampleScenario.node[68].nic.mac1609_4 	SNIRLostPackets 	26
scalar RSUExampleScenario.node[68].nic.mac1609_4 	RXTXLostPackets 	0
scalar RSUExampleScenario.node[68].nic.mac1609_4 	TotalLostPackets 	26
scalar RSUExampleScenario.node[68].nic.mac1609_4 	DroppedPacketsInMac 	0
scalar RSUExampleScenario.node[68].nic.mac1609_4 	TooLittleTime 	0
scalar RSUExampleScenario.node[68].nic.mac1609_4 	TimesIntoBackoff 	1
scalar RSUExampleScenario.node[68].nic.mac1609_4 	SlotsBackoff 	0
scalar RSUExampleScenario.node[68].nic.mac1609_4 	NumInternalContention 	0
scalar RSUExampleScenario.node[68].nic.mac1609_4 	totalBusyTime 	0.003073
scalar RSUExampleScenario.node[68].veinsmobility 	startTime 	140
scalar RSUExampleScenario.node[68].veinsmobility 	totalTime 	550
scalar RSUExampleScenario.node[68].veinsmobility 	stopTime 	691
scalar RSUExampleScenario.node[68].veinsmobility 	minSpeed 	0
scalar RSUExampleScenario.node[68].veinsmobility 	maxSpeed 	27.74191391794
scalar RSUExampleScenario.node[68].veinsmobility 	totalDistance 	3398.6684473306
scalar RSUExampleScenario.node[68].veinsmobility 	totalCO2Emission 	1261.8917324832
scalar RSUExampleScenario.node[62].nic.phy80211p 	busyTime 	4.601652892562e-06
scalar RSUExampleScenario.node[62].nic.mac1609_4 	ReceivedUnicastPackets 	0
scalar RSUExampleScenario.node[62].nic.mac1609_4 	ReceivedBroadcasts 	19
scalar RSUExampleScenario.node[62].nic.mac1609_4 	SentPackets 	1
scalar RSUExampleScenario.node[62].nic.mac1609_4 	SNIRLostPackets 	10
scalar RSUExampleScenario.node[62].nic.mac1609_4 	RXTXLostPackets 	1
scalar RSUExampleScenario.node[62].nic.mac1609_4 	TotalLostPackets 	11
scalar RSUExampleScenario.node[62].nic.mac1609_4 	DroppedPacketsInMac 	0
scalar RSUExampleScenario.node[62].nic.mac1609_4 	TooLittleTime 	0
scalar RSUExampleScenario.node[62].nic.mac1609_4 	TimesIntoBackoff 	1
scalar RSUExampleScenario.node[62].nic.mac1609_4 	SlotsBackoff 	2
scalar RSUExampleScenario.node[62].nic.mac1609_4 	NumInternalContention 	0
scalar RSUExampleScenario.node[62].nic.mac1609_4 	totalBusyTime 	0.002401
scalar RSUExampleScenario.node[62].veinsmobility 	startTime 	126
scalar RSUExampleScenario.node[62].veinsmobility 	totalTime 	604
scalar RSUExampleScenario.node[62].veinsmobility 	stopTime 	731
scalar RSUExampleScenario.node[62].veinsmobility 	minSpeed 	0
scalar RSUExampleScenario.node[62].veinsmobility 	maxSpeed 	27.400771329948
scalar RSUExampleScenario.node[62].veinsmobility 	totalDistance 	3405.3333448498
scalar RSUExampleScenario.node[62].veinsmobility 	totalCO2Emission 	1463.2075743618
scalar RSUExampleScenario.node[67].nic.phy80211p 	busyTime 	6.453781512605e-06
scalar RSUExampleScenario.node[67].nic.mac1609_4 	ReceivedUnicastPackets 	0
scalar RSUExampleScenario.node[67].nic.mac1609_4 	ReceivedBroadcasts 	16
scalar RSUExampleScenario.node[67].nic.mac1609_4 	SentPackets 	1
scalar RSUExampleScenario.node[67].nic.mac1609_4 	SNIRLostPackets 	24
scalar RSUExampleScenario.node[67].nic.mac1609_4 	RXTXLostPackets 	1
scalar RSUExampleScenario.node[67].nic.mac1609_4 	TotalLostPackets 	25
scalar RSUExampleScenario.node[67].nic.mac1609_4 	DroppedPacketsInMac 	0
scalar RSUExampleScenario.node[67].nic.mac1609_4 	TooLittleTime 	0
scalar RSUExampleScenario.node[67].nic.mac1609_4 	TimesIntoBackoff 	1
scalar RSUExampleScenario.node[67].nic.mac1609_4 	SlotsBackoff 	2
scalar RSUExampleScenario.node[67].nic.mac1609_4 	NumInternalContention 	0
scalar RSUExampleScenario.node[67].nic.mac1609_4 	totalBusyTime 	0.002785
scalar RSUExampleScenario.node[67].veinsmobility 	startTime 	138
scalar RSUExampleScenario.node[67].veinsmobility 	totalTime 	594
scalar RSUExampleScenario.node[67].veinsmobility 	stopTime 	733
scalar RSUExampleScenario.node[67].veinsmobility 	minSpeed 	0
scalar RSUExampleScenario.node[67].veinsmobility 	maxSpeed 	27.25012408656
scalar RSUExampleScenario.node[67].veinsmobility 	totalDistance 	3399.3128001766
scalar RSUExampleScenario.node[67].veinsmobility 	totalCO2Emission 	1452.3162956826
scalar RSUExampleScenario.node[35].nic.phy80211p 	busyTime 	3.7142857142857e-06
scalar RSUExampleScenario.node[35].nic.mac1609_4 	ReceivedUnicastPackets 	0
scalar RSUExampleScenario.node[35].nic.mac1609_4 	ReceivedBroadcasts 	20
scalar RSUExampleScenario.node[35].nic.mac1609_4 	SentPackets 	1
scalar RSUExampleScenario.node[35].nic.mac1609_4 	SNIRLostPackets 	6
scalar RSUExampleScenario.node[35].nic.mac1609_4 	RXTXLostPackets 	0
scalar RSUExampleScenario.node[35].nic.mac1609_4 	TotalLostPackets 	6
scalar RSUExampleScenario.node[35].nic.mac1609_4 	DroppedPacketsInMac 	0
scalar RSUExampleScenario.node[35].nic.mac1609_4 	TooLittleTime 	0
scalar RSUExampleScenario.node[35].nic.mac1609_4 	TimesIntoBackoff 	2
scalar RSUExampleScenario.node[35].nic.mac1609_4 	SlotsBackoff 	7
scalar RSUExampleScenario.node[35].nic.mac1609_4 	NumInternalContention 	0
scalar RSUExampleScenario.node[35].nic.mac1609_4 	totalBusyTime 	0.002305033099
scalar RSUExampleScenario.node[35].veinsmobility 	startTime 	64
scalar RSUExampleScenario.node[35].veinsmobility 	totalTime 	671
scalar RSUExampleScenario.node[35].veinsmobility 	stopTime 	736
scalar RSUExampleScenario.node[35].veinsmobility 	minSpeed 	0
scalar RSUExampleScenario.node[35].veinsmobility 	maxSpeed 	16.657620351464
scalar RSUExampleScenario.node[35].veinsmobility 	totalDistance 	3256.0068689
scalar RSUExampleScenario.node[35].veinsmobility 	totalCO2Emission 	1207.1098679412
scalar RSUExampleScenario.node[34].nic.phy80211p 	busyTime 	3.6923076923077e-06
scalar RSUExampleScenario.node[34].nic.mac1609_4 	ReceivedUnicastPackets 	0
scalar RSUExampleScenario.node[34].nic.mac1609_4 	ReceivedBroadcasts 	22
scalar RSUExampleScenario.node[34].nic.mac1609_4 	SentPackets 	1
scalar RSUExampleScenario.node[34].nic.mac1609_4 	SNIRLostPackets 	4
scalar RSUExampleScenario.node[34].nic.mac1609_4 	RXTXLostPackets 	1
scalar RSUExampleScenario.node[34].nic.mac1609_4 	TotalLostPackets 	5
scalar RSUExampleScenario.node[34].nic.mac1609_4 	DroppedPacketsInMac 	0
scalar RSUExampleScenario.node[34].nic.mac1609_4 	TooLittleTime 	0
scalar RSUExampleScenario.node[34].nic.mac1609_4 	TimesIntoBackoff 	2
scalar RSUExampleScenario.node[34].nic.mac1609_4 	SlotsBackoff 	6
scalar RSUExampleScenario.node[34].nic.mac1609_4 	NumInternalContention 	0
scalar RSUExampleScenario.node[34].nic.mac1609_4 	totalBusyTime 	0.00240102346
scalar RSUExampleScenario.node[34].veinsmobility 	startTime 	62
scalar RSUExampleScenario.node[34].veinsmobility 	totalTime 	675
scalar RSUExampleScenario.node[34].veinsmobility 	stopTime 	738
scalar RSUExampleScenario.node[34].veinsmobility 	minSpeed 	0
scalar RSUExampleScenario.node[34].veinsmobility 	maxSpeed 	16.657659634752
scalar RSUExampleScenario.node[34].veinsmobility 	totalDistance 	3255.6266588555
scalar RSUExampleScenario.node[34].veinsmobility 	totalCO2Emission 	1280.7394751817
scalar RSUExampleScenario.node[65].nic.phy80211p 	busyTime 	6e-06
scalar RSUExampleScenario.node[65].nic.mac1609_4 	ReceivedUnicastPackets 	0
scalar RSUExampleScenario.node[65].nic.mac1609_4 	ReceivedBroadcasts 	16
scalar RSUExampleScenario.node[65].nic.mac1609_4 	SentPackets 	1
scalar RSUExampleScenario.node[65].nic.mac1609_4 	SNIRLostPackets 	22
scalar RSUExampleScenario.node[65].nic.mac1609_4 	RXTXLostPackets 	1
scalar RSUExampleScenario.node[65].nic.mac1609_4 	TotalLostPackets 	23
scalar RSUExampleScenario.node[65].nic.mac1609_4 	DroppedPacketsInMac 	0
scalar RSUExampleScenario.node[65].nic.mac1609_4 	TooLittleTime 	0
scalar RSUExampleScenario.node[65].nic.mac1609_4 	TimesIntoBackoff 	1
scalar RSUExampleScenario.node[65].nic.mac1609_4 	SlotsBackoff 	3
scalar RSUExampleScenario.node[65].nic.mac1609_4 	NumInternalContention 	0
scalar RSUExampleScenario.node[65].nic.mac1609_4 	totalBusyTime 	0.002689
scalar RSUExampleScenario.node[65].veinsmobility 	startTime 	133
scalar RSUExampleScenario.node[65].veinsmobility 	totalTime 	607
scalar RSUExampleScenario.node[65].veinsmobility 	stopTime 	741
scalar RSUExampleScenario.node[65].veinsmobility 	minSpeed 	0
scalar RSUExampleScenario.node[65].veinsmobility 	maxSpeed 	27.767897711471
scalar RSUExampleScenario.node[65].veinsmobility 	totalDistance 	3401.8466338992
scalar RSUExampleScenario.node[65].veinsmobility 	totalCO2Emission 	1394.8245713713
scalar RSUExampleScenario.node[93].nic.phy80211p 	busyTime 	2.4392014519056e-06
scalar RSUExampleScenario.node[93].nic.mac1609_4 	ReceivedUnicastPackets 	0
scalar RSUExampleScenario.node[93].nic.mac1609_4 	ReceivedBroadcasts 	10
scalar RSUExampleScenario.node[93].nic.mac1609_4 	SentPackets 	1
scalar RSUExampleScenario.node[93].nic.mac1609_4 	SNIRLostPackets 	4
scalar RSUExampleScenario.node[93].nic.mac1609_4 	RXTXLostPackets 	0
scalar RSUExampleScenario.node[93].nic.mac1609_4 	TotalLostPackets 	4
scalar RSUExampleScenario.node[93].nic.mac1609_4 	DroppedPacketsInMac 	0
scalar RSUExampleScenario.node[93].nic.mac1609_4 	TooLittleTime 	0
scalar RSUExampleScenario.node[93].nic.mac1609_4 	TimesIntoBackoff 	1
scalar RSUExampleScenario.node[93].nic.mac1609_4 	SlotsBackoff 	3
scalar RSUExampleScenario.node[93].nic.mac1609_4 	NumInternalContention 	0
scalar RSUExampleScenario.node[93].nic.mac1609_4 	totalBusyTime 	0.001249
scalar RSUExampleScenario.node[93].veinsmobility 	startTime 	201
scalar RSUExampleScenario.node[93].veinsmobility 	totalTime 	550
scalar RSUExampleScenario.node[93].veinsmobility 	stopTime 	752
scalar RSUExampleScenario.node[93].veinsmobility 	minSpeed 	0
scalar RSUExampleScenario.node[93].veinsmobility 	maxSpeed 	27.770415432433
scalar RSUExampleScenario.node[93].veinsmobility 	totalDistance 	3398.8006814511
scalar RSUExampleScenario.node[93].veinsmobility 	totalCO2Emission 	1107.2615558493
scalar RSUExampleScenario.node[66].nic.phy80211p 	busyTime 	6.2035541195477e-06
scalar RSUExampleScenario.node[66].nic.mac1609_4 	ReceivedUnicastPackets 	0
scalar RSUExampleScenario.node[66].nic.mac1609_4 	ReceivedBroadcasts 	16
scalar RSUExampleScenario.node[66].nic.mac1609_4 	SentPackets 	1
scalar RSUExampleScenario.node[66].nic.mac1609_4 	SNIRLostPackets 	24
scalar RSUExampleScenario.node[66].nic.mac1609_4 	RXTXLostPackets 	1
scalar RSUExampleScenario.node[66].nic.mac1609_4 	TotalLostPackets 	25
scalar RSUExampleScenario.node[66].nic.mac1609_4 	DroppedPacketsInMac 	0
scalar RSUExampleScenario.node[66].nic.mac1609_4 	TooLittleTime 	0
scalar RSUExampleScenario.node[66].nic.mac1609_4 	TimesIntoBackoff 	2
scalar RSUExampleScenario.node[66].nic.mac1609_4 	SlotsBackoff 	8
scalar RSUExampleScenario.node[66].nic.mac1609_4 	NumInternalContention 	0
scalar RSUExampleScenario.node[66].nic.mac1609_4 	totalBusyTime 	0.002785
scalar RSUExampleScenario.node[66].veinsmobility 	startTime 	135
scalar RSUExampleScenario.node[66].veinsmobility 	totalTime 	618
scalar RSUExampleScenario.node[66].veinsmobility 	stopTime 	754
scalar RSUExampleScenario.node[66].veinsmobility 	minSpeed 	0
scalar RSUExampleScenario.node[66].veinsmobility 	maxSpeed 	27.729488967992
scalar RSUExampleScenario.node[66].veinsmobility 	totalDistance 	3413.9930044383
scalar RSUExampleScenario.node[66].veinsmobility 	totalCO2Emission 	1448.0366515184
scalar RSUExampleScenario.node[79].nic.phy80211p 	busyTime 	6.497461928934e-06
scalar RSUExampleScenario.node[79].nic.mac1609_4 	ReceivedUnicastPackets 	0
scalar RSUExampleScenario.node[79].nic.mac1609_4 	ReceivedBroadcasts 	34
scalar RSUExampleScenario.node[79].nic.mac1609_4 	SentPackets 	1
scalar RSUExampleScenario.node[79].nic.mac1609_4 	SNIRLostPackets 	6
scalar RSUExampleScenario.node[79].nic.mac1609_4 	RXTXLostPackets 	0
scalar RSUExampleScenario.node[79].nic.mac1609_4 	TotalLostPackets 	6
scalar RSUExampleScenario.node[79].nic.mac1609_4 	DroppedPacketsInMac 	0
scalar RSUExampleScenario.node[79].nic.mac1609_4 	TooLittleTime 	0
scalar RSUExampleScenario.node[79].nic.mac1609_4 	TimesIntoBackoff 	1
scalar RSUExampleScenario.node[79].nic.mac1609_4 	SlotsBackoff 	4
scalar RSUExampleScenario.node[79].nic.mac1609_4 	NumInternalContention 	0
scalar RSUExampleScenario.node[79].nic.mac1609_4 	totalBusyTime 	0.003649
scalar RSUExampleScenario.node[79].veinsmobility 	startTime 	165
scalar RSUExampleScenario.node[79].veinsmobility 	totalTime 	590
scalar RSUExampleScenario.node[79].veinsmobility 	stopTime 	756
scalar RSUExampleScenario.node[79].veinsmobility 	minSpeed 	0
scalar RSUExampleScenario.node[79].veinsmobility 	maxSpeed 	27.771046788273
scalar RSUExampleScenario.node[79].veinsmobility 	totalDistance 	3396.3261088592
scalar RSUExampleScenario.node[79].veinsmobility 	totalCO2Emission 	1339.6606110751
scalar RSUExampleScenario.node[73].nic.phy80211p 	busyTime 	5.6842105263158e-06
scalar RSUExampleScenario.node[73].nic.mac1609_4 	ReceivedUnicastPackets 	0
scalar RSUExampleScenario.node[73].nic.mac1609_4 	ReceivedBroadcasts 	26
scalar RSUExampleScenario.node[73].nic.mac1609_4 	SentPackets 	1
scalar RSUExampleScenario.node[73].nic.mac1609_4 	SNIRLostPackets 	10
scalar RSUExampleScenario.node[73].nic.mac1609_4 	RXTXLostPackets 	0
scalar RSUExampleScenario.node[73].nic.mac1609_4 	TotalLostPackets 	10
scalar RSUExampleScenario.node[73].nic.mac1609_4 	DroppedPacketsInMac 	0
scalar RSUExampleScenario.node[73].nic.mac1609_4 	TooLittleTime 	0
scalar RSUExampleScenario.node[73].nic.mac1609_4 	TimesIntoBackoff 	2
scalar RSUExampleScenario.node[73].nic.mac1609_4 	SlotsBackoff 	8
scalar RSUExampleScenario.node[73].nic.mac1609_4 	NumInternalContention 	0
scalar RSUExampleScenario.node[73].nic.mac1609_4 	totalBusyTime 	0.003073
scalar RSUExampleScenario.node[73].veinsmobility 	startTime 	151
scalar RSUExampleScenario.node[73].veinsmobility 	totalTime 	607
scalar RSUExampleScenario.node[73].veinsmobility 	stopTime 	759
scalar RSUExampleScenario.node[73].veinsmobility 	minSpeed 	0
scalar RSUExampleScenario.node[73].veinsmobility 	maxSpeed 	27.593088651411
scalar RSUExampleScenario.node[73].veinsmobility 	totalDistance 	3408.467162952
scalar RSUExampleScenario.node[73].veinsmobility 	totalCO2Emission 	1389.4242711285
scalar RSUExampleScenario.node[37].nic.phy80211p 	busyTime 	3.4632034632035e-06
scalar RSUExampleScenario.node[37].nic.mac1609_4 	ReceivedUnicastPackets 	0
scalar RSUExampleScenario.node[37].nic.mac1609_4 	ReceivedBroadcasts 	21
scalar RSUExampleScenario.node[37].nic.mac1609_4 	SentPackets 	1
scalar RSUExampleScenario.node[37].nic.mac1609_4 	SNIRLostPackets 	4
scalar RSUExampleScenario.node[37].nic.mac1609_4 	RXTXLostPackets 	1
scalar RSUExampleScenario.node[37].nic.mac1609_4 	TotalLostPackets 	5
scalar RSUExampleScenario.node[37].nic.mac1609_4 	DroppedPacketsInMac 	0
scalar RSUExampleScenario.node[37].nic.mac1609_4 	TooLittleTime 	0
scalar RSUExampleScenario.node[37].nic.mac1609_4 	TimesIntoBackoff 	1
scalar RSUExampleScenario.node[37].nic.mac1609_4 	SlotsBackoff 	3
scalar RSUExampleScenario.node[37].nic.mac1609_4 	NumInternalContention 	0
scalar RSUExampleScenario.node[37].nic.mac1609_4 	totalBusyTime 	0.00230518988
scalar RSUExampleScenario.node[37].veinsmobility 	startTime 	68
scalar RSUExampleScenario.node[37].veinsmobility 	totalTime 	692
scalar RSUExampleScenario.node[37].veinsmobility 	stopTime 	761
scalar RSUExampleScenario.node[37].veinsmobility 	minSpeed 	0
scalar RSUExampleScenario.node[37].veinsmobility 	maxSpeed 	16.665396585083
scalar RSUExampleScenario.node[37].veinsmobility 	totalDistance 	3254.5419106611
scalar RSUExampleScenario.node[37].veinsmobility 	totalCO2Emission 	1189.9429575906
scalar RSUExampleScenario.node[32].nic.phy80211p 	busyTime 	3.6765957446809e-06
scalar RSUExampleScenario.node[32].nic.mac1609_4 	ReceivedUnicastPackets 	0
scalar RSUExampleScenario.node[32].nic.mac1609_4 	ReceivedBroadcasts 	21
scalar RSUExampleScenario.node[32].nic.mac1609_4 	SentPackets 	1
scalar RSUExampleScenario.node[32].nic.mac1609_4 	SNIRLostPackets 	6
scalar RSUExampleScenario.node[32].nic.mac1609_4 	RXTXLostPackets 	0
scalar RSUExampleScenario.node[32].nic.mac1609_4 	TotalLostPackets 	6
scalar RSUExampleScenario.node[32].nic.mac1609_4 	DroppedPacketsInMac 	0
scalar RSUExampleScenario.node[32].nic.mac1609_4 	TooLittleTime 	0
scalar RSUExampleScenario.node[32].nic.mac1609_4 	TimesIntoBackoff 	2
scalar RSUExampleScenario.node[32].nic.mac1609_4 	SlotsBackoff 	5
scalar RSUExampleScenario.node[32].nic.mac1609_4 	NumInternalContention 	0
scalar RSUExampleScenario.node[32].nic.mac1609_4 	totalBusyTime 	0.002401
scalar RSUExampleScenario.node[32].veinsmobility 	startTime 	58
scalar RSUExampleScenario.node[32].veinsmobility 	totalTime 	704
scalar RSUExampleScenario.node[32].veinsmobility 	stopTime 	763
scalar RSUExampleScenario.node[32].veinsmobility 	minSpeed 	0
scalar RSUExampleScenario.node[32].veinsmobility 	maxSpeed 	16.662929503769
scalar RSUExampleScenario.node[32].veinsmobility 	totalDistance 	3260.5983735481
scalar RSUExampleScenario.node[32].veinsmobility 	totalCO2Emission 	1346.5559958137
scalar RSUExampleScenario.node[97].nic.phy80211p 	busyTime 	6.9565217391304e-06
scalar RSUExampleScenario.node[97].nic.mac1609_4 	ReceivedUnicastPackets 	0
scalar RSUExampleScenario.node[97].nic.mac1609_4 	ReceivedBroadcasts 	29
scalar RSUExampleScenario.node[97].nic.mac1609_4 	SentPackets 	1
scalar RSUExampleScenario.node[97].nic.mac1609_4 	SNIRLostPackets 	11
scalar RSUExampleScenario.node[97].nic.mac1609_4 	RXTXLostPackets 	0
scalar RSUExampleScenario.node[97].nic.mac1609_4 	TotalLostPackets 	11
scalar RSUExampleScenario.node[97].nic.mac1609_4 	DroppedPacketsInMac 	0
scalar RSUExampleScenario.node[97].nic.mac1609_4 	TooLittleTime 	0
scalar RSUExampleScenario.node[97].nic.mac1609_4 	TimesIntoBackoff 	1
scalar RSUExampleScenario.node[97].nic.mac1609_4 	SlotsBackoff 	0
scalar RSUExampleScenario.node[97].nic.mac1609_4 	NumInternalContention 	0
scalar RSUExampleScenario.node[97].nic.mac1609_4 	totalBusyTime 	0.003457
scalar RSUExampleScenario.node[97].veinsmobility 	startTime 	218
scalar RSUExampleScenario.node[97].veinsmobility 	totalTime 	551
scalar RSUExampleScenario.node[97].veinsmobility 	stopTime 	770
scalar RSUExampleScenario.node[97].veinsmobility 	minSpeed 	0
scalar RSUExampleScenario.node[97].veinsmobility 	maxSpeed 	27.722970314085
scalar RSUExampleScenario.node[97].veinsmobility 	totalDistance 	3393.9261056934
scalar RSUExampleScenario.node[97].veinsmobility 	totalCO2Emission 	1070.8491553248
scalar RSUExampleScenario.node[38].nic.phy80211p 	busyTime 	3.4188034188034e-06
scalar RSUExampleScenario.node[38].nic.mac1609_4 	ReceivedUnicastPackets 	0
scalar RSUExampleScenario.node[38].nic.mac1609_4 	ReceivedBroadcasts 	21
scalar RSUExampleScenario.node[38].nic.mac1609_4 	SentPackets 	1
scalar RSUExampleScenario.node[38].nic.mac1609_4 	SNIRLostPackets 	4
scalar RSUExampleScenario.node[38].nic.mac1609_4 	RXTXLostPackets 	1
scalar RSUExampleScenario.node[38].nic.mac1609_4 	TotalLostPackets 	5
scalar RSUExampleScenario.node[38].nic.mac1609_4 	DroppedPacketsInMac 	0
scalar RSUExampleScenario.node[38].nic.mac1609_4 	TooLittleTime 	0
scalar RSUExampleScenario.node[38].nic.mac1609_4 	TimesIntoBackoff 	1
scalar RSUExampleScenario.node[38].nic.mac1609_4 	SlotsBackoff 	1
scalar RSUExampleScenario.node[38].nic.mac1609_4 	NumInternalContention 	0
scalar RSUExampleScenario.node[38].nic.mac1609_4 	totalBusyTime 	0.002305043345
scalar RSUExampleScenario.node[38].veinsmobility 	startTime 	70
scalar RSUExampleScenario.node[38].veinsmobility 	totalTime 	701
scalar RSUExampleScenario.node[38].veinsmobility 	stopTime 	772
scalar RSUExampleScenario.node[38].veinsmobility 	minSpeed 	0
scalar RSUExampleScenario.node[38].veinsmobility 	maxSpeed 	16.64963354581
scalar RSUExampleScenario.node[38].veinsmobility 	totalDistance 	3251.1078665466
scalar RSUExampleScenario.node[38].veinsmobility 	totalCO2Emission 	1201.5113273328
scalar RSUExampleScenario.node[40].nic.phy80211p 	busyTime 	3.4285714285714e-06
scalar RSUExampleScenario.node[40].nic.mac1609_4 	ReceivedUnicastPackets 	0
scalar RSUExampleScenario.node[40].nic.mac1609_4 	ReceivedBroadcasts 	21
scalar RSUExampleScenario.node[40].nic.mac1609_4 	SentPackets 	1
scalar RSUExampleScenario.node[40].nic.mac1609_4 	SNIRLostPackets 	4
scalar RSUExampleScenario.node[40].nic.mac1609_4 	RXTXLostPackets 	1
scalar RSUExampleScenario.node[40].nic.mac1609_4 	TotalLostPackets 	5
scalar RSUExampleScenario.node[40].nic.mac1609_4 	DroppedPacketsInMac 	0
scalar RSUExampleScenario.node[40].nic.mac1609_4 	TooLittleTime 	0
scalar RSUExampleScenario.node[40].nic.mac1609_4 	TimesIntoBackoff 	2
scalar RSUExampleScenario.node[40].nic.mac1609_4 	SlotsBackoff 	11
scalar RSUExampleScenario.node[40].nic.mac1609_4 	NumInternalContention 	0
scalar RSUExampleScenario.node[40].nic.mac1609_4 	totalBusyTime 	0.002305049537
scalar RSUExampleScenario.node[40].veinsmobility 	startTime 	74
scalar RSUExampleScenario.node[40].veinsmobility 	totalTime 	699
scalar RSUExampleScenario.node[40].veinsmobility 	stopTime 	774
scalar RSUExampleScenario.node[40].veinsmobility 	minSpeed 	0
scalar RSUExampleScenario.node[40].veinsmobility 	maxSpeed 	16.668566808533
scalar RSUExampleScenario.node[40].veinsmobility 	totalDistance 	3249.9705882876
scalar RSUExampleScenario.node[40].veinsmobility 	totalCO2Emission 	1170.0693404358
scalar RSUExampleScenario.node[59].nic.phy80211p 	busyTime 	3.063829787234e-06
scalar RSUExampleScenario.node[59].nic.mac1609_4 	ReceivedUnicastPackets 	0
scalar RSUExampleScenario.node[59].nic.mac1609_4 	ReceivedBroadcasts 	19
scalar RSUExampleScenario.node[59].nic.mac1609_4 	SentPackets 	1
scalar RSUExampleScenario.node[59].nic.mac1609_4 	SNIRLostPackets 	2
scalar RSUExampleScenario.node[59].nic.mac1609_4 	RXTXLostPackets 	0
scalar RSUExampleScenario.node[59].nic.mac1609_4 	TotalLostPackets 	2
scalar RSUExampleScenario.node[59].nic.mac1609_4 	DroppedPacketsInMac 	0
scalar RSUExampleScenario.node[59].nic.mac1609_4 	TooLittleTime 	0
scalar RSUExampleScenario.node[59].nic.mac1609_4 	TimesIntoBackoff 	1
scalar RSUExampleScenario.node[59].nic.mac1609_4 	SlotsBackoff 	4
scalar RSUExampleScenario.node[59].nic.mac1609_4 	NumInternalContention 	0
scalar RSUExampleScenario.node[59].nic.mac1609_4 	totalBusyTime 	0.002017
scalar RSUExampleScenario.node[59].veinsmobility 	startTime 	119
scalar RSUExampleScenario.node[59].veinsmobility 	totalTime 	657
scalar RSUExampleScenario.node[59].veinsmobility 	stopTime 	777
scalar RSUExampleScenario.node[59].veinsmobility 	minSpeed 	0
scalar RSUExampleScenario.node[59].veinsmobility 	maxSpeed 	27.765129660852
scalar RSUExampleScenario.node[59].veinsmobility 	totalDistance 	3406.0508123511
scalar RSUExampleScenario.node[59].veinsmobility 	totalCO2Emission 	1445.8730043356
scalar RSUExampleScenario.node[63].nic.phy80211p 	busyTime 	4.5714285714286e-06
scalar RSUExampleScenario.node[63].nic.mac1609_4 	ReceivedUnicastPackets 	0
scalar RSUExampleScenario.node[63].nic.mac1609_4 	ReceivedBroadcasts 	19
[...]
scalar RSUExampleScenario.node[386].veinsmobility 	maxSpeed 	16.669110461976
scalar RSUExampleScenario.node[386].veinsmobility 	totalDistance 	3646.1121035348
scalar RSUExampleScenario.node[386].veinsmobility 	totalCO2Emission 	1183.3960024645
scalar RSUExampleScenario.node[387].nic.phy80211p 	busyTime 	3.9211267605634e-06
scalar RSUExampleScenario.node[387].nic.mac1609_4 	ReceivedUnicastPackets 	0
scalar RSUExampleScenario.node[387].nic.mac1609_4 	ReceivedBroadcasts 	23
scalar RSUExampleScenario.node[387].nic.mac1609_4 	SentPackets 	1
scalar RSUExampleScenario.node[387].nic.mac1609_4 	SNIRLostPackets 	6
scalar RSUExampleScenario.node[387].nic.mac1609_4 	RXTXLostPackets 	0
scalar RSUExampleScenario.node[387].nic.mac1609_4 	TotalLostPackets 	6
scalar RSUExampleScenario.node[387].nic.mac1609_4 	DroppedPacketsInMac 	0
scalar RSUExampleScenario.node[387].nic.mac1609_4 	TooLittleTime 	0
scalar RSUExampleScenario.node[387].nic.mac1609_4 	TimesIntoBackoff 	1
scalar RSUExampleScenario.node[387].nic.mac1609_4 	SlotsBackoff 	3
scalar RSUExampleScenario.node[387].nic.mac1609_4 	NumInternalContention 	0
scalar RSUExampleScenario.node[387].nic.mac1609_4 	totalBusyTime 	0.002593
scalar RSUExampleScenario.node[387].veinsmobility 	startTime 	1510
scalar RSUExampleScenario.node[387].veinsmobility 	totalTime 	709
scalar RSUExampleScenario.node[387].veinsmobility 	stopTime 	2220
scalar RSUExampleScenario.node[387].veinsmobility 	minSpeed 	0
scalar RSUExampleScenario.node[387].veinsmobility 	maxSpeed 	16.667759421851
scalar RSUExampleScenario.node[387].veinsmobility 	totalDistance 	3652.3631018019
scalar RSUExampleScenario.node[387].veinsmobility 	totalCO2Emission 	1193.6689744901
scalar RSUExampleScenario.node[264].nic.phy80211p 	busyTime 	1.1180722891566e-05
scalar RSUExampleScenario.node[264].nic.mac1609_4 	ReceivedUnicastPackets 	0
scalar RSUExampleScenario.node[264].nic.mac1609_4 	ReceivedBroadcasts 	88
scalar RSUExampleScenario.node[264].nic.mac1609_4 	SentPackets 	1
scalar RSUExampleScenario.node[264].nic.mac1609_4 	SNIRLostPackets 	28
scalar RSUExampleScenario.node[264].nic.mac1609_4 	RXTXLostPackets 	0
scalar RSUExampleScenario.node[264].nic.mac1609_4 	TotalLostPackets 	28
scalar RSUExampleScenario.node[264].nic.mac1609_4 	DroppedPacketsInMac 	0
scalar RSUExampleScenario.node[264].nic.mac1609_4 	TooLittleTime 	0
scalar RSUExampleScenario.node[264].nic.mac1609_4 	TimesIntoBackoff 	1
scalar RSUExampleScenario.node[264].nic.mac1609_4 	SlotsBackoff 	1
scalar RSUExampleScenario.node[264].nic.mac1609_4 	NumInternalContention 	0
scalar RSUExampleScenario.node[264].nic.mac1609_4 	totalBusyTime 	0.009793124994
scalar RSUExampleScenario.node[264].veinsmobility 	startTime 	1227
scalar RSUExampleScenario.node[264].veinsmobility 	totalTime 	995
scalar RSUExampleScenario.node[264].veinsmobility 	stopTime 	2223
scalar RSUExampleScenario.node[264].veinsmobility 	minSpeed 	0
scalar RSUExampleScenario.node[264].veinsmobility 	maxSpeed 	16.666090900224
scalar RSUExampleScenario.node[264].veinsmobility 	totalDistance 	3764.1124622739
scalar RSUExampleScenario.node[264].veinsmobility 	totalCO2Emission 	1577.2965159916
scalar RSUExampleScenario.node[265].nic.phy80211p 	busyTime 	1.1265797392177e-05
scalar RSUExampleScenario.node[265].nic.mac1609_4 	ReceivedUnicastPackets 	0
scalar RSUExampleScenario.node[265].nic.mac1609_4 	ReceivedBroadcasts 	88
scalar RSUExampleScenario.node[265].nic.mac1609_4 	SentPackets 	1
scalar RSUExampleScenario.node[265].nic.mac1609_4 	SNIRLostPackets 	29
scalar RSUExampleScenario.node[265].nic.mac1609_4 	RXTXLostPackets 	0
scalar RSUExampleScenario.node[265].nic.mac1609_4 	TotalLostPackets 	29
scalar RSUExampleScenario.node[265].nic.mac1609_4 	DroppedPacketsInMac 	0
scalar RSUExampleScenario.node[265].nic.mac1609_4 	TooLittleTime 	0
scalar RSUExampleScenario.node[265].nic.mac1609_4 	TimesIntoBackoff 	1
scalar RSUExampleScenario.node[265].nic.mac1609_4 	SlotsBackoff 	5
scalar RSUExampleScenario.node[265].nic.mac1609_4 	NumInternalContention 	0
scalar RSUExampleScenario.node[265].nic.mac1609_4 	totalBusyTime 	0.009793098719
scalar RSUExampleScenario.node[265].veinsmobility 	startTime 	1229
scalar RSUExampleScenario.node[265].veinsmobility 	totalTime 	996
scalar RSUExampleScenario.node[265].veinsmobility 	stopTime 	2226
scalar RSUExampleScenario.node[265].veinsmobility 	minSpeed 	0
scalar RSUExampleScenario.node[265].veinsmobility 	maxSpeed 	16.665410216312
scalar RSUExampleScenario.node[265].veinsmobility 	totalDistance 	3762.8534331958
scalar RSUExampleScenario.node[265].veinsmobility 	totalCO2Emission 	1546.1522518351
scalar RSUExampleScenario.node[266].nic.phy80211p 	busyTime 	1.1254509018036e-05
scalar RSUExampleScenario.node[266].nic.mac1609_4 	ReceivedUnicastPackets 	0
scalar RSUExampleScenario.node[266].nic.mac1609_4 	ReceivedBroadcasts 	88
scalar RSUExampleScenario.node[266].nic.mac1609_4 	SentPackets 	1
scalar RSUExampleScenario.node[266].nic.mac1609_4 	SNIRLostPackets 	29
scalar RSUExampleScenario.node[266].nic.mac1609_4 	RXTXLostPackets 	0
scalar RSUExampleScenario.node[266].nic.mac1609_4 	TotalLostPackets 	29
scalar RSUExampleScenario.node[266].nic.mac1609_4 	DroppedPacketsInMac 	0
scalar RSUExampleScenario.node[266].nic.mac1609_4 	TooLittleTime 	0
scalar RSUExampleScenario.node[266].nic.mac1609_4 	TimesIntoBackoff 	1
scalar RSUExampleScenario.node[266].nic.mac1609_4 	SlotsBackoff 	4
scalar RSUExampleScenario.node[266].nic.mac1609_4 	NumInternalContention 	0
scalar RSUExampleScenario.node[266].nic.mac1609_4 	totalBusyTime 	0.009793071443
scalar RSUExampleScenario.node[266].veinsmobility 	startTime 	1231
scalar RSUExampleScenario.node[266].veinsmobility 	totalTime 	997
scalar RSUExampleScenario.node[266].veinsmobility 	stopTime 	2229
scalar RSUExampleScenario.node[266].veinsmobility 	minSpeed 	0
scalar RSUExampleScenario.node[266].veinsmobility 	maxSpeed 	16.669259753122
scalar RSUExampleScenario.node[266].veinsmobility 	totalDistance 	3764.2499878162
scalar RSUExampleScenario.node[266].veinsmobility 	totalCO2Emission 	1539.7289641558
scalar RSUExampleScenario.node[267].nic.phy80211p 	busyTime 	1.1243243243243e-05
scalar RSUExampleScenario.node[267].nic.mac1609_4 	ReceivedUnicastPackets 	0
scalar RSUExampleScenario.node[267].nic.mac1609_4 	ReceivedBroadcasts 	87
scalar RSUExampleScenario.node[267].nic.mac1609_4 	SentPackets 	1
scalar RSUExampleScenario.node[267].nic.mac1609_4 	SNIRLostPackets 	30
scalar RSUExampleScenario.node[267].nic.mac1609_4 	RXTXLostPackets 	0
scalar RSUExampleScenario.node[267].nic.mac1609_4 	TotalLostPackets 	30
scalar RSUExampleScenario.node[267].nic.mac1609_4 	DroppedPacketsInMac 	0
scalar RSUExampleScenario.node[267].nic.mac1609_4 	TooLittleTime 	0
scalar RSUExampleScenario.node[267].nic.mac1609_4 	TimesIntoBackoff 	1
scalar RSUExampleScenario.node[267].nic.mac1609_4 	SlotsBackoff 	3
scalar RSUExampleScenario.node[267].nic.mac1609_4 	NumInternalContention 	0
scalar RSUExampleScenario.node[267].nic.mac1609_4 	totalBusyTime 	0.009793043727
scalar RSUExampleScenario.node[267].veinsmobility 	startTime 	1233
scalar RSUExampleScenario.node[267].veinsmobility 	totalTime 	998
scalar RSUExampleScenario.node[267].veinsmobility 	stopTime 	2232
scalar RSUExampleScenario.node[267].veinsmobility 	minSpeed 	0
scalar RSUExampleScenario.node[267].veinsmobility 	maxSpeed 	16.66363408471
scalar RSUExampleScenario.node[267].veinsmobility 	totalDistance 	3763.0240040628
scalar RSUExampleScenario.node[267].veinsmobility 	totalCO2Emission 	1542.4319819719
scalar RSUExampleScenario.node[365].nic.phy80211p 	busyTime 	3.5374841168996e-06
scalar RSUExampleScenario.node[365].nic.mac1609_4 	ReceivedUnicastPackets 	0
scalar RSUExampleScenario.node[365].nic.mac1609_4 	ReceivedBroadcasts 	23
scalar RSUExampleScenario.node[365].nic.mac1609_4 	SentPackets 	1
scalar RSUExampleScenario.node[365].nic.mac1609_4 	SNIRLostPackets 	6
scalar RSUExampleScenario.node[365].nic.mac1609_4 	RXTXLostPackets 	0
scalar RSUExampleScenario.node[365].nic.mac1609_4 	TotalLostPackets 	6
scalar RSUExampleScenario.node[365].nic.mac1609_4 	DroppedPacketsInMac 	0
scalar RSUExampleScenario.node[365].nic.mac1609_4 	TooLittleTime 	0
scalar RSUExampleScenario.node[365].nic.mac1609_4 	TimesIntoBackoff 	2
scalar RSUExampleScenario.node[365].nic.mac1609_4 	SlotsBackoff 	6
scalar RSUExampleScenario.node[365].nic.mac1609_4 	NumInternalContention 	0
scalar RSUExampleScenario.node[365].nic.mac1609_4 	totalBusyTime 	0.002593
scalar RSUExampleScenario.node[365].veinsmobility 	startTime 	1448
scalar RSUExampleScenario.node[365].veinsmobility 	totalTime 	786
scalar RSUExampleScenario.node[365].veinsmobility 	stopTime 	2235
scalar RSUExampleScenario.node[365].veinsmobility 	minSpeed 	0
scalar RSUExampleScenario.node[365].veinsmobility 	maxSpeed 	16.669680393832
scalar RSUExampleScenario.node[365].veinsmobility 	totalDistance 	3763.5400721912
scalar RSUExampleScenario.node[365].veinsmobility 	totalCO2Emission 	1381.3471539419
scalar RSUExampleScenario.node[366].nic.phy80211p 	busyTime 	3.5419847328244e-06
scalar RSUExampleScenario.node[366].nic.mac1609_4 	ReceivedUnicastPackets 	0
scalar RSUExampleScenario.node[366].nic.mac1609_4 	ReceivedBroadcasts 	23
scalar RSUExampleScenario.node[366].nic.mac1609_4 	SentPackets 	1
scalar RSUExampleScenario.node[366].nic.mac1609_4 	SNIRLostPackets 	6
scalar RSUExampleScenario.node[366].nic.mac1609_4 	RXTXLostPackets 	0
scalar RSUExampleScenario.node[366].nic.mac1609_4 	TotalLostPackets 	6
scalar RSUExampleScenario.node[366].nic.mac1609_4 	DroppedPacketsInMac 	0
scalar RSUExampleScenario.node[366].nic.mac1609_4 	TooLittleTime 	0
scalar RSUExampleScenario.node[366].nic.mac1609_4 	TimesIntoBackoff 	2
scalar RSUExampleScenario.node[366].nic.mac1609_4 	SlotsBackoff 	4
scalar RSUExampleScenario.node[366].nic.mac1609_4 	NumInternalContention 	0
scalar RSUExampleScenario.node[366].nic.mac1609_4 	totalBusyTime 	0.002593
scalar RSUExampleScenario.node[366].veinsmobility 	startTime 	1451
scalar RSUExampleScenario.node[366].veinsmobility 	totalTime 	785
scalar RSUExampleScenario.node[366].veinsmobility 	stopTime 	2237
scalar RSUExampleScenario.node[366].veinsmobility 	minSpeed 	0
scalar RSUExampleScenario.node[366].veinsmobility 	maxSpeed 	16.661298099672
scalar RSUExampleScenario.node[366].veinsmobility 	totalDistance 	3754.2337407587
scalar RSUExampleScenario.node[366].veinsmobility 	totalCO2Emission 	1358.6351958421
scalar RSUExampleScenario.node[367].nic.phy80211p 	busyTime 	3.5374841168996e-06
scalar RSUExampleScenario.node[367].nic.mac1609_4 	ReceivedUnicastPackets 	0
scalar RSUExampleScenario.node[367].nic.mac1609_4 	ReceivedBroadcasts 	23
scalar RSUExampleScenario.node[367].nic.mac1609_4 	SentPackets 	1
scalar RSUExampleScenario.node[367].nic.mac1609_4 	SNIRLostPackets 	6
scalar RSUExampleScenario.node[367].nic.mac1609_4 	RXTXLostPackets 	0
scalar RSUExampleScenario.node[367].nic.mac1609_4 	TotalLostPackets 	6
scalar RSUExampleScenario.node[367].nic.mac1609_4 	DroppedPacketsInMac 	0
scalar RSUExampleScenario.node[367].nic.mac1609_4 	TooLittleTime 	0
scalar RSUExampleScenario.node[367].nic.mac1609_4 	TimesIntoBackoff 	2
scalar RSUExampleScenario.node[367].nic.mac1609_4 	SlotsBackoff 	12
scalar RSUExampleScenario.node[367].nic.mac1609_4 	NumInternalContention 	0
scalar RSUExampleScenario.node[367].nic.mac1609_4 	totalBusyTime 	0.002593
scalar RSUExampleScenario.node[367].veinsmobility 	startTime 	1453
scalar RSUExampleScenario.node[367].veinsmobility 	totalTime 	786
scalar RSUExampleScenario.node[367].veinsmobility 	stopTime 	2240
scalar RSUExampleScenario.node[367].veinsmobility 	minSpeed 	0
scalar RSUExampleScenario.node[367].veinsmobility 	maxSpeed 	16.666647972893
scalar RSUExampleScenario.node[367].veinsmobility 	totalDistance 	3760.8592730332
scalar RSUExampleScenario.node[367].veinsmobility 	totalCO2Emission 	1373.4857695659
scalar RSUExampleScenario.node[368].nic.phy80211p 	busyTime 	3.5374841168996e-06
scalar RSUExampleScenario.node[368].nic.mac1609_4 	ReceivedUnicastPackets 	0
scalar RSUExampleScenario.node[368].nic.mac1609_4 	ReceivedBroadcasts 	23
scalar RSUExampleScenario.node[368].nic.mac1609_4 	SentPackets 	1
scalar RSUExampleScenario.node[368].nic.mac1609_4 	SNIRLostPackets 	6
scalar RSUExampleScenario.node[368].nic.mac1609_4 	RXTXLostPackets 	0
scalar RSUExampleScenario.node[368].nic.mac1609_4 	TotalLostPackets 	6
scalar RSUExampleScenario.node[368].nic.mac1609_4 	DroppedPacketsInMac 	0
scalar RSUExampleScenario.node[368].nic.mac1609_4 	TooLittleTime 	0
scalar RSUExampleScenario.node[368].nic.mac1609_4 	TimesIntoBackoff 	1
scalar RSUExampleScenario.node[368].nic.mac1609_4 	SlotsBackoff 	7
scalar RSUExampleScenario.node[368].nic.mac1609_4 	NumInternalContention 	0
scalar RSUExampleScenario.node[368].nic.mac1609_4 	totalBusyTime 	0.002593
scalar RSUExampleScenario.node[368].veinsmobility 	startTime 	1456
scalar RSUExampleScenario.node[368].veinsmobility 	totalTime 	786
scalar RSUExampleScenario.node[368].veinsmobility 	stopTime 	2243
scalar RSUExampleScenario.node[368].veinsmobility 	minSpeed 	0
scalar RSUExampleScenario.node[368].veinsmobility 	maxSpeed 	16.669524474171
scalar RSUExampleScenario.node[368].veinsmobility 	totalDistance 	3764.8434855897
scalar RSUExampleScenario.node[368].veinsmobility 	totalCO2Emission 	1329.4564953687
scalar RSUExampleScenario.node[369].nic.phy80211p 	busyTime 	3.5374841168996e-06
scalar RSUExampleScenario.node[369].nic.mac1609_4 	ReceivedUnicastPackets 	0
scalar RSUExampleScenario.node[369].nic.mac1609_4 	ReceivedBroadcasts 	23
scalar RSUExampleScenario.node[369].nic.mac1609_4 	SentPackets 	1
scalar RSUExampleScenario.node[369].nic.mac1609_4 	SNIRLostPackets 	6
scalar RSUExampleScenario.node[369].nic.mac1609_4 	RXTXLostPackets 	0
scalar RSUExampleScenario.node[369].nic.mac1609_4 	TotalLostPackets 	6
scalar RSUExampleScenario.node[369].nic.mac1609_4 	DroppedPacketsInMac 	0
scalar RSUExampleScenario.node[369].nic.mac1609_4 	TooLittleTime 	0
scalar RSUExampleScenario.node[369].nic.mac1609_4 	TimesIntoBackoff 	1
scalar RSUExampleScenario.node[369].nic.mac1609_4 	SlotsBackoff 	3
scalar RSUExampleScenario.node[369].nic.mac1609_4 	NumInternalContention 	0
scalar RSUExampleScenario.node[369].nic.mac1609_4 	totalBusyTime 	0.002593
scalar RSUExampleScenario.node[369].veinsmobility 	startTime 	1459
scalar RSUExampleScenario.node[369].veinsmobility 	totalTime 	786
scalar RSUExampleScenario.node[369].veinsmobility 	stopTime 	2246
scalar RSUExampleScenario.node[369].veinsmobility 	minSpeed 	0
scalar RSUExampleScenario.node[369].veinsmobility 	maxSpeed 	16.665811625124
scalar RSUExampleScenario.node[369].veinsmobility 	totalDistance 	3762.7077571511
scalar RSUExampleScenario.node[369].veinsmobility 	totalCO2Emission 	1302.2121508907
scalar RSUExampleScenario.node[370].nic.phy80211p 	busyTime 	3.5329949238579e-06
scalar RSUExampleScenario.node[370].nic.mac1609_4 	ReceivedUnicastPackets 	0
scalar RSUExampleScenario.node[370].nic.mac1609_4 	ReceivedBroadcasts 	23
scalar RSUExampleScenario.node[370].nic.mac1609_4 	SentPackets 	1
scalar RSUExampleScenario.node[370].nic.mac1609_4 	SNIRLostPackets 	6
scalar RSUExampleScenario.node[370].nic.mac1609_4 	RXTXLostPackets 	0
scalar RSUExampleScenario.node[370].nic.mac1609_4 	TotalLostPackets 	6
scalar RSUExampleScenario.node[370].nic.mac1609_4 	DroppedPacketsInMac 	0
scalar RSUExampleScenario.node[370].nic.mac1609_4 	TooLittleTime 	0
scalar RSUExampleScenario.node[370].nic.mac1609_4 	TimesIntoBackoff 	2
scalar RSUExampleScenario.node[370].nic.mac1609_4 	SlotsBackoff 	6
scalar RSUExampleScenario.node[370].nic.mac1609_4 	NumInternalContention 	0
scalar RSUExampleScenario.node[370].nic.mac1609_4 	totalBusyTime 	0.002593
scalar RSUExampleScenario.node[370].veinsmobility 	startTime 	1462
scalar RSUExampleScenario.node[370].veinsmobility 	totalTime 	787
scalar RSUExampleScenario.node[370].veinsmobility 	stopTime 	2250
scalar RSUExampleScenario.node[370].veinsmobility 	minSpeed 	0
scalar RSUExampleScenario.node[370].veinsmobility 	maxSpeed 	16.668179487031
scalar RSUExampleScenario.node[370].veinsmobility 	totalDistance 	3765.0839145427
scalar RSUExampleScenario.node[370].veinsmobility 	totalCO2Emission 	1302.1777765244
scalar RSUExampleScenario.node[371].nic.phy80211p 	busyTime 	3.5329949238579e-06
scalar RSUExampleScenario.node[371].nic.mac1609_4 	ReceivedUnicastPackets 	0
scalar RSUExampleScenario.node[371].nic.mac1609_4 	ReceivedBroadcasts 	23
scalar RSUExampleScenario.node[371].nic.mac1609_4 	SentPackets 	1
scalar RSUExampleScenario.node[371].nic.mac1609_4 	SNIRLostPackets 	6
scalar RSUExampleScenario.node[371].nic.mac1609_4 	RXTXLostPackets 	0
scalar RSUExampleScenario.node[371].nic.mac1609_4 	TotalLostPackets 	6
scalar RSUExampleScenario.node[371].nic.mac1609_4 	DroppedPacketsInMac 	0
scalar RSUExampleScenario.node[371].nic.mac1609_4 	TooLittleTime 	0
scalar RSUExampleScenario.node[371].nic.mac1609_4 	TimesIntoBackoff 	1
scalar RSUExampleScenario.node[371].nic.mac1609_4 	SlotsBackoff 	5
scalar RSUExampleScenario.node[371].nic.mac1609_4 	NumInternalContention 	0
scalar RSUExampleScenario.node[371].nic.mac1609_4 	totalBusyTime 	0.002593
scalar RSUExampleScenario.node[371].veinsmobility 	startTime 	1465
scalar RSUExampleScenario.node[371].veinsmobility 	totalTime 	787
scalar RSUExampleScenario.node[371].veinsmobility 	stopTime 	2253
scalar RSUExampleScenario.node[371].veinsmobility 	minSpeed 	0
scalar RSUExampleScenario.node[371].veinsmobility 	maxSpeed 	16.66969548746
scalar RSUExampleScenario.node[371].veinsmobility 	totalDistance 	3766.5097311915
scalar RSUExampleScenario.node[371].veinsmobility 	totalCO2Emission 	1322.2780597547
scalar RSUExampleScenario.node[372].nic.phy80211p 	busyTime 	3.4111675126904e-06
scalar RSUExampleScenario.node[372].nic.mac1609_4 	ReceivedUnicastPackets 	0
scalar RSUExampleScenario.node[372].nic.mac1609_4 	ReceivedBroadcasts 	24
scalar RSUExampleScenario.node[372].nic.mac1609_4 	SentPackets 	1
scalar RSUExampleScenario.node[372].nic.mac1609_4 	SNIRLostPackets 	4
scalar RSUExampleScenario.node[372].nic.mac1609_4 	RXTXLostPackets 	1
scalar RSUExampleScenario.node[372].nic.mac1609_4 	TotalLostPackets 	5
scalar RSUExampleScenario.node[372].nic.mac1609_4 	DroppedPacketsInMac 	0
scalar RSUExampleScenario.node[372].nic.mac1609_4 	TooLittleTime 	0
scalar RSUExampleScenario.node[372].nic.mac1609_4 	TimesIntoBackoff 	1
scalar RSUExampleScenario.node[372].nic.mac1609_4 	SlotsBackoff 	6
scalar RSUExampleScenario.node[372].nic.mac1609_4 	NumInternalContention 	0
scalar RSUExampleScenario.node[372].nic.mac1609_4 	totalBusyTime 	0.002593
scalar RSUExampleScenario.node[372].veinsmobility 	startTime 	1468
scalar RSUExampleScenario.node[372].veinsmobility 	totalTime 	787
scalar RSUExampleScenario.node[372].veinsmobility 	stopTime 	2256
scalar RSUExampleScenario.node[372].veinsmobility 	minSpeed 	0
scalar RSUExampleScenario.node[372].veinsmobility 	maxSpeed 	16.669695852967
scalar RSUExampleScenario.node[372].veinsmobility 	totalDistance 	3763.3789523381
scalar RSUExampleScenario.node[372].veinsmobility 	totalCO2Emission 	1328.5378527489
scalar RSUExampleScenario.rsu[0].nic.phy80211p 	busyTime 	1.44e-07
scalar RSUExampleScenario.rsu[0].nic.mac1609_4 	ReceivedUnicastPackets 	0
scalar RSUExampleScenario.rsu[0].nic.mac1609_4 	ReceivedBroadcasts 	15
scalar RSUExampleScenario.rsu[0].nic.mac1609_4 	SentPackets 	1
scalar RSUExampleScenario.rsu[0].nic.mac1609_4 	SNIRLostPackets 	0
scalar RSUExampleScenario.rsu[0].nic.mac1609_4 	RXTXLostPackets 	0
scalar RSUExampleScenario.rsu[0].nic.mac1609_4 	TotalLostPackets 	0
scalar RSUExampleScenario.rsu[0].nic.mac1609_4 	DroppedPacketsInMac 	0
scalar RSUExampleScenario.rsu[0].nic.mac1609_4 	TooLittleTime 	0
scalar RSUExampleScenario.rsu[0].nic.mac1609_4 	TimesIntoBackoff 	1
scalar RSUExampleScenario.rsu[0].nic.mac1609_4 	SlotsBackoff 	2
scalar RSUExampleScenario.rsu[0].nic.mac1609_4 	NumInternalContention 	0
scalar RSUExampleScenario.rsu[0].nic.mac1609_4 	totalBusyTime 	0.001537
