version 2
run debug-0-20161222-11:36:39-3845
attr configname debug
attr datetime 20161222-11:36:39
attr experiment debug
attr inifile omnetpp.ini
attr iterationvars ""
attr iterationvars2 $repetition=0
attr measurement ""
attr network RSUExampleScenario
attr processid 3845
attr repetition 0
attr replication #0
attr resultdir results
attr runnumber 0
attr seedset 0
param **.coreDebug false
param **.debug false
param *.**.nic.mac1609_4.bitrate 27Mbps
param *.**.nic.mac1609_4.txPower 20mW
param *.**.nic.mac1609_4.useServiceChannel false
param *.**.nic.phy80211p.analogueModels "xmldoc(\"config.xml\")"
param *.**.nic.phy80211p.decider "xmldoc(\"config.xml\")"
param *.**.nic.phy80211p.sensitivity -89dBm
param *.**.nic.phy80211p.thermalNoise -110dBm
param *.**.nic.phy80211p.usePropagationDelay true
param *.**.nic.phy80211p.useThermalNoise true
param *.annotations.draw false
param *.connectionManager.alpha 2.0
param *.connectionManager.carrierFrequency "5.890e9 Hz"
param *.connectionManager.pMax 12.5mW
param *.connectionManager.sat -89dBm
param *.connectionManager.sendDirect true
param *.manager.autoShutdown true
param *.manager.host "\"localhost\""
param *.manager.launchConfig "xmldoc(\"erlangen.launchd.xml\")"
param *.manager.margin 25
param *.manager.moduleDisplayString "\"\""
param *.manager.moduleName "\"node\""
param *.manager.moduleType "\"org.car2x.veins.nodes.Car\""
param *.manager.port 9999
param *.manager.updateInterval 1s
param *.node[*].appl.beaconInterval 1s
param *.node[*].appl.beaconPriority 3
param *.node[*].appl.dataOnSch false
param *.node[*].appl.dataPriority 2
param *.node[*].appl.debug false
param *.node[*].appl.headerLength "256 bit"
param *.node[*].appl.maxOffset 0.005s
param *.node[*].appl.sendBeacons false
param *.node[*].appl.sendData true
param *.node[*].applType "\"TraCIDemo11p\""
param *.node[*].mobilityType "\"TraCIMobility\""
param *.node[*].mobilityType.debug true
param *.node[*].veinsmobility.accidentCount 5
param *.node[*].veinsmobility.accidentDuration 43s
param *.node[*].veinsmobility.accidentStart 85s
param *.node[*].veinsmobility.x 0
param *.node[*].veinsmobility.y 0
param *.node[*].veinsmobility.z 1.895
param *.node[*].veinsmobilityType "\"org.car2x.veins.modules.mobility.traci.TraCIMobility\""
param *.node[*].veinsmobilityType.debug true
param *.obstacles.debug false
param *.obstacles.obstacles "xmldoc(\"config.xml\", \"//AnalogueModel[@type='SimpleObstacleShadowing']/obstacles\")"
param *.playgroundSizeX 2500m
param *.playgroundSizeY 2500m
param *.playgroundSizeZ 50m
param *.rsu[*].appl.beaconInterval 1s
param *.rsu[*].appl.beaconPriority 3
param *.rsu[*].appl.dataOnSch false
param *.rsu[*].appl.dataPriority 2
param *.rsu[*].appl.debug false
param *.rsu[*].appl.headerLength "256 bit"
param *.rsu[*].appl.maxOffset 0.005s
param *.rsu[*].appl.sendBeacons false
param *.rsu[*].appl.sendData true
param *.rsu[*].applType "\"TraCIDemoRSU11p\""
param *.rsu[0].mobility.x 2000
param *.rsu[0].mobility.y 2000
param *.rsu[0].mobility.z 3
param *.world.use2D false
param *.world.useTorus false

scalar RSUExampleScenario.node[0].nic.phy80211p 	busyTime 	0
scalar RSUExampleScenario.node[0].nic.mac1609_4 	ReceivedUnicastPackets 	0
scalar RSUExampleScenario.node[0].nic.mac1609_4 	ReceivedBroadcasts 	0
scalar RSUExampleScenario.node[0].nic.mac1609_4 	SentPackets 	1
scalar RSUExampleScenario.node[0].nic.mac1609_4 	SNIRLostPackets 	0
scalar RSUExampleScenario.node[0].nic.mac1609_4 	RXTXLostPackets 	0
scalar RSUExampleScenario.node[0].nic.mac1609_4 	TotalLostPackets 	0
scalar RSUExampleScenario.node[0].nic.mac1609_4 	DroppedPacketsInMac 	0
scalar RSUExampleScenario.node[0].nic.mac1609_4 	TooLittleTime 	0
scalar RSUExampleScenario.node[0].nic.mac1609_4 	TimesIntoBackoff 	1
scalar RSUExampleScenario.node[0].nic.mac1609_4 	SlotsBackoff 	3
scalar RSUExampleScenario.node[0].nic.mac1609_4 	NumInternalContention 	0
scalar RSUExampleScenario.node[0].nic.mac1609_4 	totalBusyTime 	9.7e-05
scalar RSUExampleScenario.node[0].veinsmobility 	startTime 	1
scalar RSUExampleScenario.node[0].veinsmobility 	totalTime 	328
scalar RSUExampleScenario.node[0].veinsmobility 	stopTime 	330
scalar RSUExampleScenario.node[0].veinsmobility 	minSpeed 	0
scalar RSUExampleScenario.node[0].veinsmobility 	maxSpeed 	27.768710480146
scalar RSUExampleScenario.node[0].veinsmobility 	totalDistance 	3393.3051040332
scalar RSUExampleScenario.node[0].veinsmobility 	totalCO2Emission 	944.01172824914
scalar RSUExampleScenario.node[2].nic.phy80211p 	busyTime 	4.9230769230769e-06
scalar RSUExampleScenario.node[2].nic.mac1609_4 	ReceivedUnicastPackets 	0
scalar RSUExampleScenario.node[2].nic.mac1609_4 	ReceivedBroadcasts 	18
scalar RSUExampleScenario.node[2].nic.mac1609_4 	SentPackets 	1
scalar RSUExampleScenario.node[2].nic.mac1609_4 	SNIRLostPackets 	0
scalar RSUExampleScenario.node[2].nic.mac1609_4 	RXTXLostPackets 	0
scalar RSUExampleScenario.node[2].nic.mac1609_4 	TotalLostPackets 	0
scalar RSUExampleScenario.node[2].nic.mac1609_4 	DroppedPacketsInMac 	0
scalar RSUExampleScenario.node[2].nic.mac1609_4 	TooLittleTime 	0
scalar RSUExampleScenario.node[2].nic.mac1609_4 	TimesIntoBackoff 	1
scalar RSUExampleScenario.node[2].nic.mac1609_4 	SlotsBackoff 	4
scalar RSUExampleScenario.node[2].nic.mac1609_4 	NumInternalContention 	0
scalar RSUExampleScenario.node[2].nic.mac1609_4 	totalBusyTime 	0.001825
scalar RSUExampleScenario.node[2].veinsmobility 	startTime 	5
scalar RSUExampleScenario.node[2].veinsmobility 	totalTime 	350
scalar RSUExampleScenario.node[2].veinsmobility 	stopTime 	356
scalar RSUExampleScenario.node[2].veinsmobility 	minSpeed 	0
scalar RSUExampleScenario.node[2].veinsmobility 	maxSpeed 	27.777677725879
scalar RSUExampleScenario.node[2].veinsmobility 	totalDistance 	3386.8118779959
scalar RSUExampleScenario.node[2].veinsmobility 	totalCO2Emission 	890.32952500251
scalar RSUExampleScenario.node[1].nic.phy80211p 	busyTime 	4.256157635468e-06
scalar RSUExampleScenario.node[1].nic.mac1609_4 	ReceivedUnicastPackets 	0
scalar RSUExampleScenario.node[1].nic.mac1609_4 	ReceivedBroadcasts 	18
scalar RSUExampleScenario.node[1].nic.mac1609_4 	SentPackets 	1
scalar RSUExampleScenario.node[1].nic.mac1609_4 	SNIRLostPackets 	0
scalar RSUExampleScenario.node[1].nic.mac1609_4 	RXTXLostPackets 	0
scalar RSUExampleScenario.node[1].nic.mac1609_4 	TotalLostPackets 	0
scalar RSUExampleScenario.node[1].nic.mac1609_4 	DroppedPacketsInMac 	0
scalar RSUExampleScenario.node[1].nic.mac1609_4 	TooLittleTime 	0
scalar RSUExampleScenario.node[1].nic.mac1609_4 	TimesIntoBackoff 	2
scalar RSUExampleScenario.node[1].nic.mac1609_4 	SlotsBackoff 	8
scalar RSUExampleScenario.node[1].nic.mac1609_4 	NumInternalContention 	0
scalar RSUExampleScenario.node[1].nic.mac1609_4 	totalBusyTime 	0.001825
scalar RSUExampleScenario.node[1].veinsmobility 	startTime 	3
scalar RSUExampleScenario.node[1].veinsmobility 	totalTime 	405
scalar RSUExampleScenario.node[1].veinsmobility 	stopTime 	409
scalar RSUExampleScenario.node[1].veinsmobility 	minSpeed 	0
scalar RSUExampleScenario.node[1].veinsmobility 	maxSpeed 	27.778188040318
scalar RSUExampleScenario.node[1].veinsmobility 	totalDistance 	3388.06843375
scalar RSUExampleScenario.node[1].veinsmobility 	totalCO2Emission 	932.59650617526
scalar RSUExampleScenario.node[5].nic.phy80211p 	busyTime 	4.4815724815725e-06
scalar RSUExampleScenario.node[5].nic.mac1609_4 	ReceivedUnicastPackets 	0
scalar RSUExampleScenario.node[5].nic.mac1609_4 	ReceivedBroadcasts 	17
scalar RSUExampleScenario.node[5].nic.mac1609_4 	SentPackets 	1
scalar RSUExampleScenario.node[5].nic.mac1609_4 	SNIRLostPackets 	2
scalar RSUExampleScenario.node[5].nic.mac1609_4 	RXTXLostPackets 	0
scalar RSUExampleScenario.node[5].nic.mac1609_4 	TotalLostPackets 	2
scalar RSUExampleScenario.node[5].nic.mac1609_4 	DroppedPacketsInMac 	0
scalar RSUExampleScenario.node[5].nic.mac1609_4 	TooLittleTime 	0
scalar RSUExampleScenario.node[5].nic.mac1609_4 	TimesIntoBackoff 	1
scalar RSUExampleScenario.node[5].nic.mac1609_4 	SlotsBackoff 	5
scalar RSUExampleScenario.node[5].nic.mac1609_4 	NumInternalContention 	0
scalar RSUExampleScenario.node[5].nic.mac1609_4 	totalBusyTime 	0.001825
scalar RSUExampleScenario.node[5].veinsmobility 	startTime 	10
scalar RSUExampleScenario.node[5].veinsmobility 	totalTime 	406
scalar RSUExampleScenario.node[5].veinsmobility 	stopTime 	417
scalar RSUExampleScenario.node[5].veinsmobility 	minSpeed 	0
scalar RSUExampleScenario.node[5].veinsmobility 	maxSpeed 	27.763528873604
scalar RSUExampleScenario.node[5].veinsmobility 	totalDistance 	3390.9206721456
scalar RSUExampleScenario.node[5].veinsmobility 	totalCO2Emission 	1002.4379335689
scalar RSUExampleScenario.node[4].nic.phy80211p 	busyTime 	4.027972027972e-06
scalar RSUExampleScenario.node[4].nic.mac1609_4 	ReceivedUnicastPackets 	0
scalar RSUExampleScenario.node[4].nic.mac1609_4 	ReceivedBroadcasts 	18
scalar RSUExampleScenario.node[4].nic.mac1609_4 	SentPackets 	1
scalar RSUExampleScenario.node[4].nic.mac1609_4 	SNIRLostPackets 	0
scalar RSUExampleScenario.node[4].nic.mac1609_4 	RXTXLostPackets 	0
scalar RSUExampleScenario.node[4].nic.mac1609_4 	TotalLostPackets 	0
scalar RSUExampleScenario.node[4].nic.mac1609_4 	DroppedPacketsInMac 	0
scalar RSUExampleScenario.node[4].nic.mac1609_4 	TooLittleTime 	0
scalar RSUExampleScenario.node[4].nic.mac1609_4 	TimesIntoBackoff 	2
scalar RSUExampleScenario.node[4].nic.mac1609_4 	SlotsBackoff 	9
scalar RSUExampleScenario.node[4].nic.mac1609_4 	NumInternalContention 	0
scalar RSUExampleScenario.node[4].nic.mac1609_4 	totalBusyTime 	0.001825
scalar RSUExampleScenario.node[4].veinsmobility 	startTime 	8
scalar RSUExampleScenario.node[4].veinsmobility 	totalTime 	428
scalar RSUExampleScenario.node[4].veinsmobility 	stopTime 	437
scalar RSUExampleScenario.node[4].veinsmobility 	minSpeed 	0
scalar RSUExampleScenario.node[4].veinsmobility 	maxSpeed 	27.75182667057
scalar RSUExampleScenario.node[4].veinsmobility 	totalDistance 	3394.6430461241
scalar RSUExampleScenario.node[4].veinsmobility 	totalCO2Emission 	978.20942413365
scalar RSUExampleScenario.node[3].nic.phy80211p 	busyTime 	3.9907621247113e-06
scalar RSUExampleScenario.node[3].nic.mac1609_4 	ReceivedUnicastPackets 	0
scalar RSUExampleScenario.node[3].nic.mac1609_4 	ReceivedBroadcasts 	18
scalar RSUExampleScenario.node[3].nic.mac1609_4 	SentPackets 	1
scalar RSUExampleScenario.node[3].nic.mac1609_4 	SNIRLostPackets 	0
scalar RSUExampleScenario.node[3].nic.mac1609_4 	RXTXLostPackets 	0
scalar RSUExampleScenario.node[3].nic.mac1609_4 	TotalLostPackets 	0
scalar RSUExampleScenario.node[3].nic.mac1609_4 	DroppedPacketsInMac 	0
scalar RSUExampleScenario.node[3].nic.mac1609_4 	TooLittleTime 	0
scalar RSUExampleScenario.node[3].nic.mac1609_4 	TimesIntoBackoff 	1
scalar RSUExampleScenario.node[3].nic.mac1609_4 	SlotsBackoff 	4
scalar RSUExampleScenario.node[3].nic.mac1609_4 	NumInternalContention 	0
scalar RSUExampleScenario.node[3].nic.mac1609_4 	totalBusyTime 	0.001825
scalar RSUExampleScenario.node[3].veinsmobility 	startTime 	7
scalar RSUExampleScenario.node[3].veinsmobility 	totalTime 	432
scalar RSUExampleScenario.node[3].veinsmobility 	stopTime 	440
scalar RSUExampleScenario.node[3].veinsmobility 	minSpeed 	0
scalar RSUExampleScenario.node[3].veinsmobility 	maxSpeed 	27.750909077181
scalar RSUExampleScenario.node[3].veinsmobility 	totalDistance 	3396.6155798252
scalar RSUExampleScenario.node[3].veinsmobility 	totalCO2Emission 	993.27055364072
scalar RSUExampleScenario.node[6].nic.phy80211p 	busyTime 	4.334085778781e-06
scalar RSUExampleScenario.node[6].nic.mac1609_4 	ReceivedUnicastPackets 	0
scalar RSUExampleScenario.node[6].nic.mac1609_4 	ReceivedBroadcasts 	18
scalar RSUExampleScenario.node[6].nic.mac1609_4 	SentPackets 	1
scalar RSUExampleScenario.node[6].nic.mac1609_4 	SNIRLostPackets 	2
scalar RSUExampleScenario.node[6].nic.mac1609_4 	RXTXLostPackets 	0
scalar RSUExampleScenario.node[6].nic.mac1609_4 	TotalLostPackets 	2
scalar RSUExampleScenario.node[6].nic.mac1609_4 	DroppedPacketsInMac 	0
scalar RSUExampleScenario.node[6].nic.mac1609_4 	TooLittleTime 	0
scalar RSUExampleScenario.node[6].nic.mac1609_4 	TimesIntoBackoff 	1
scalar RSUExampleScenario.node[6].nic.mac1609_4 	SlotsBackoff 	0
scalar RSUExampleScenario.node[6].nic.mac1609_4 	NumInternalContention 	0
scalar RSUExampleScenario.node[6].nic.mac1609_4 	totalBusyTime 	0.001921
scalar RSUExampleScenario.node[6].veinsmobility 	startTime 	12
scalar RSUExampleScenario.node[6].veinsmobility 	totalTime 	442
scalar RSUExampleScenario.node[6].veinsmobility 	stopTime 	455
scalar RSUExampleScenario.node[6].veinsmobility 	minSpeed 	0
scalar RSUExampleScenario.node[6].veinsmobility 	maxSpeed 	27.779343798762
scalar RSUExampleScenario.node[6].veinsmobility 	totalDistance 	3389.1636971838
scalar RSUExampleScenario.node[6].veinsmobility 	totalCO2Emission 	917.52748494576
scalar RSUExampleScenario.node[7].nic.phy80211p 	busyTime 	4.3243243243243e-06
scalar RSUExampleScenario.node[7].nic.mac1609_4 	ReceivedUnicastPackets 	0
scalar RSUExampleScenario.node[7].nic.mac1609_4 	ReceivedBroadcasts 	18
scalar RSUExampleScenario.node[7].nic.mac1609_4 	SentPackets 	1
scalar RSUExampleScenario.node[7].nic.mac1609_4 	SNIRLostPackets 	2
scalar RSUExampleScenario.node[7].nic.mac1609_4 	RXTXLostPackets 	0
scalar RSUExampleScenario.node[7].nic.mac1609_4 	TotalLostPackets 	2
scalar RSUExampleScenario.node[7].nic.mac1609_4 	DroppedPacketsInMac 	0
scalar RSUExampleScenario.node[7].nic.mac1609_4 	TooLittleTime 	0
scalar RSUExampleScenario.node[7].nic.mac1609_4 	TimesIntoBackoff 	2
scalar RSUExampleScenario.node[7].nic.mac1609_4 	SlotsBackoff 	10
scalar RSUExampleScenario.node[7].nic.mac1609_4 	NumInternalContention 	0
scalar RSUExampleScenario.node[7].nic.mac1609_4 	totalBusyTime 	0.001921
scalar RSUExampleScenario.node[7].veinsmobility 	startTime 	14
scalar RSUExampleScenario.node[7].veinsmobility 	totalTime 	443
scalar RSUExampleScenario.node[7].veinsmobility 	stopTime 	458
scalar RSUExampleScenario.node[7].veinsmobility 	minSpeed 	0
scalar RSUExampleScenario.node[7].veinsmobility 	maxSpeed 	27.737601034408
scalar RSUExampleScenario.node[7].veinsmobility 	totalDistance 	3397.59274944
scalar RSUExampleScenario.node[7].veinsmobility 	totalCO2Emission 	966.37881091489
scalar RSUExampleScenario.node[9].nic.phy80211p 	busyTime 	3.9587628865979e-06
scalar RSUExampleScenario.node[9].nic.mac1609_4 	ReceivedUnicastPackets 	0
scalar RSUExampleScenario.node[9].nic.mac1609_4 	ReceivedBroadcasts 	18
scalar RSUExampleScenario.node[9].nic.mac1609_4 	SentPackets 	1
scalar RSUExampleScenario.node[9].nic.mac1609_4 	SNIRLostPackets 	2
scalar RSUExampleScenario.node[9].nic.mac1609_4 	RXTXLostPackets 	0
scalar RSUExampleScenario.node[9].nic.mac1609_4 	TotalLostPackets 	2
scalar RSUExampleScenario.node[9].nic.mac1609_4 	DroppedPacketsInMac 	0
scalar RSUExampleScenario.node[9].nic.mac1609_4 	TooLittleTime 	0
scalar RSUExampleScenario.node[9].nic.mac1609_4 	TimesIntoBackoff 	2
scalar RSUExampleScenario.node[9].nic.mac1609_4 	SlotsBackoff 	3
scalar RSUExampleScenario.node[9].nic.mac1609_4 	NumInternalContention 	0
scalar RSUExampleScenario.node[9].nic.mac1609_4 	totalBusyTime 	0.001921
scalar RSUExampleScenario.node[9].veinsmobility 	startTime 	17
scalar RSUExampleScenario.node[9].veinsmobility 	totalTime 	484
scalar RSUExampleScenario.node[9].veinsmobility 	stopTime 	502
scalar RSUExampleScenario.node[9].veinsmobility 	minSpeed 	0
scalar RSUExampleScenario.node[9].veinsmobility 	maxSpeed 	27.77740391098
scalar RSUExampleScenario.node[9].veinsmobility 	totalDistance 	3392.8890626316
scalar RSUExampleScenario.node[9].veinsmobility 	totalCO2Emission 	992.44377156848
scalar RSUExampleScenario.node[10].nic.phy80211p 	busyTime 	4.1567010309278e-06
scalar RSUExampleScenario.node[10].nic.mac1609_4 	ReceivedUnicastPackets 	0
scalar RSUExampleScenario.node[10].nic.mac1609_4 	ReceivedBroadcasts 	17
scalar RSUExampleScenario.node[10].nic.mac1609_4 	SentPackets 	1
scalar RSUExampleScenario.node[10].nic.mac1609_4 	SNIRLostPackets 	4
scalar RSUExampleScenario.node[10].nic.mac1609_4 	RXTXLostPackets 	0
scalar RSUExampleScenario.node[10].nic.mac1609_4 	TotalLostPackets 	4
scalar RSUExampleScenario.node[10].nic.mac1609_4 	DroppedPacketsInMac 	0
scalar RSUExampleScenario.node[10].nic.mac1609_4 	TooLittleTime 	0
scalar RSUExampleScenario.node[10].nic.mac1609_4 	TimesIntoBackoff 	2
scalar RSUExampleScenario.node[10].nic.mac1609_4 	SlotsBackoff 	9
scalar RSUExampleScenario.node[10].nic.mac1609_4 	NumInternalContention 	0
scalar RSUExampleScenario.node[10].nic.mac1609_4 	totalBusyTime 	0.001921
scalar RSUExampleScenario.node[10].veinsmobility 	startTime 	19
scalar RSUExampleScenario.node[10].veinsmobility 	totalTime 	484
scalar RSUExampleScenario.node[10].veinsmobility 	stopTime 	504
scalar RSUExampleScenario.node[10].veinsmobility 	minSpeed 	0
scalar RSUExampleScenario.node[10].veinsmobility 	maxSpeed 	27.751222434836
scalar RSUExampleScenario.node[10].veinsmobility 	totalDistance 	3392.8863966355
scalar RSUExampleScenario.node[10].veinsmobility 	totalCO2Emission 	1071.0560014419
scalar RSUExampleScenario.node[13].nic.phy80211p 	busyTime 	4.473786407767e-06
scalar RSUExampleScenario.node[13].nic.mac1609_4 	ReceivedUnicastPackets 	0
scalar RSUExampleScenario.node[13].nic.mac1609_4 	ReceivedBroadcasts 	16
scalar RSUExampleScenario.node[13].nic.mac1609_4 	SentPackets 	1
scalar RSUExampleScenario.node[13].nic.mac1609_4 	SNIRLostPackets 	8
scalar RSUExampleScenario.node[13].nic.mac1609_4 	RXTXLostPackets 	0
scalar RSUExampleScenario.node[13].nic.mac1609_4 	TotalLostPackets 	8
scalar RSUExampleScenario.node[13].nic.mac1609_4 	DroppedPacketsInMac 	0
scalar RSUExampleScenario.node[13].nic.mac1609_4 	TooLittleTime 	0
scalar RSUExampleScenario.node[13].nic.mac1609_4 	TimesIntoBackoff 	1
scalar RSUExampleScenario.node[13].nic.mac1609_4 	SlotsBackoff 	2
scalar RSUExampleScenario.node[13].nic.mac1609_4 	NumInternalContention 	0
scalar RSUExampleScenario.node[13].nic.mac1609_4 	totalBusyTime 	0.002017021343
scalar RSUExampleScenario.node[13].veinsmobility 	startTime 	25
scalar RSUExampleScenario.node[13].veinsmobility 	totalTime 	514
scalar RSUExampleScenario.node[13].veinsmobility 	stopTime 	540
scalar RSUExampleScenario.node[13].veinsmobility 	minSpeed 	0
scalar RSUExampleScenario.node[13].veinsmobility 	maxSpeed 	27.745688289832
scalar RSUExampleScenario.node[13].veinsmobility 	totalDistance 	3395.4793883482
scalar RSUExampleScenario.node[13].veinsmobility 	totalCO2Emission 	1081.1937226483
scalar RSUExampleScenario.node[11].nic.phy80211p 	busyTime 	3.8620689655172e-06
scalar RSUExampleScenario.node[11].nic.mac1609_4 	ReceivedUnicastPackets 	0
scalar RSUExampleScenario.node[11].nic.mac1609_4 	ReceivedBroadcasts 	17
scalar RSUExampleScenario.node[11].nic.mac1609_4 	SentPackets 	1
scalar RSUExampleScenario.node[11].nic.mac1609_4 	SNIRLostPackets 	4
scalar RSUExampleScenario.node[11].nic.mac1609_4 	RXTXLostPackets 	0
scalar RSUExampleScenario.node[11].nic.mac1609_4 	TotalLostPackets 	4
scalar RSUExampleScenario.node[11].nic.mac1609_4 	DroppedPacketsInMac 	0
scalar RSUExampleScenario.node[11].nic.mac1609_4 	TooLittleTime 	0
scalar RSUExampleScenario.node[11].nic.mac1609_4 	TimesIntoBackoff 	2
scalar RSUExampleScenario.node[11].nic.mac1609_4 	SlotsBackoff 	4
scalar RSUExampleScenario.node[11].nic.mac1609_4 	NumInternalContention 	0
scalar RSUExampleScenario.node[11].nic.mac1609_4 	totalBusyTime 	0.001921
scalar RSUExampleScenario.node[11].veinsmobility 	startTime 	20
scalar RSUExampleScenario.node[11].veinsmobility 	totalTime 	521
scalar RSUExampleScenario.node[11].veinsmobility 	stopTime 	542
scalar RSUExampleScenario.node[11].veinsmobility 	minSpeed 	0
scalar RSUExampleScenario.node[11].veinsmobility 	maxSpeed 	27.749026262658
scalar RSUExampleScenario.node[11].veinsmobility 	totalDistance 	3397.3135239155
scalar RSUExampleScenario.node[11].veinsmobility 	totalCO2Emission 	1107.2334375921
scalar RSUExampleScenario.node[8].nic.phy80211p 	busyTime 	3.6294896030246e-06
scalar RSUExampleScenario.node[8].nic.mac1609_4 	ReceivedUnicastPackets 	0
scalar RSUExampleScenario.node[8].nic.mac1609_4 	ReceivedBroadcasts 	18
scalar RSUExampleScenario.node[8].nic.mac1609_4 	SentPackets 	1
scalar RSUExampleScenario.node[8].nic.mac1609_4 	SNIRLostPackets 	2
scalar RSUExampleScenario.node[8].nic.mac1609_4 	RXTXLostPackets 	0
scalar RSUExampleScenario.node[8].nic.mac1609_4 	TotalLostPackets 	2
scalar RSUExampleScenario.node[8].nic.mac1609_4 	DroppedPacketsInMac 	0
scalar RSUExampleScenario.node[8].nic.mac1609_4 	TooLittleTime 	0
scalar RSUExampleScenario.node[8].nic.mac1609_4 	TimesIntoBackoff 	1
scalar RSUExampleScenario.node[8].nic.mac1609_4 	SlotsBackoff 	3
scalar RSUExampleScenario.node[8].nic.mac1609_4 	NumInternalContention 	0
scalar RSUExampleScenario.node[8].nic.mac1609_4 	totalBusyTime 	0.001921
scalar RSUExampleScenario.node[8].veinsmobility 	startTime 	16
scalar RSUExampleScenario.node[8].veinsmobility 	totalTime 	528
scalar RSUExampleScenario.node[8].veinsmobility 	stopTime 	545
scalar RSUExampleScenario.node[8].veinsmobility 	minSpeed 	0
scalar RSUExampleScenario.node[8].veinsmobility 	maxSpeed 	27.773561144182
scalar RSUExampleScenario.node[8].veinsmobility 	totalDistance 	3404.3168053402
scalar RSUExampleScenario.node[8].veinsmobility 	totalCO2Emission 	1184.3282449073
scalar RSUExampleScenario.node[12].nic.phy80211p 	busyTime 	3.992438563327e-06
scalar RSUExampleScenario.node[12].nic.mac1609_4 	ReceivedUnicastPackets 	0
scalar RSUExampleScenario.node[12].nic.mac1609_4 	ReceivedBroadcasts 	18
scalar RSUExampleScenario.node[12].nic.mac1609_4 	SentPackets 	1
scalar RSUExampleScenario.node[12].nic.mac1609_4 	SNIRLostPackets 	4
scalar RSUExampleScenario.node[12].nic.mac1609_4 	RXTXLostPackets 	1
scalar RSUExampleScenario.node[12].nic.mac1609_4 	TotalLostPackets 	5
scalar RSUExampleScenario.node[12].nic.mac1609_4 	DroppedPacketsInMac 	0
scalar RSUExampleScenario.node[12].nic.mac1609_4 	TooLittleTime 	0
scalar RSUExampleScenario.node[12].nic.mac1609_4 	TimesIntoBackoff 	1
scalar RSUExampleScenario.node[12].nic.mac1609_4 	SlotsBackoff 	7
scalar RSUExampleScenario.node[12].nic.mac1609_4 	NumInternalContention 	0
scalar RSUExampleScenario.node[12].nic.mac1609_4 	totalBusyTime 	0.002017
scalar RSUExampleScenario.node[12].veinsmobility 	startTime 	23
scalar RSUExampleScenario.node[12].veinsmobility 	totalTime 	528
scalar RSUExampleScenario.node[12].veinsmobility 	stopTime 	552
scalar RSUExampleScenario.node[12].veinsmobility 	minSpeed 	0
scalar RSUExampleScenario.node[12].veinsmobility 	maxSpeed 	27.755570773735
scalar RSUExampleScenario.node[12].veinsmobility 	totalDistance 	3390.9712556541
scalar RSUExampleScenario.node[12].veinsmobility 	totalCO2Emission 	1080.7189822033
scalar RSUExampleScenario.node[15].nic.phy80211p 	busyTime 	4.7362428842505e-06
scalar RSUExampleScenario.node[15].nic.mac1609_4 	ReceivedUnicastPackets 	0
scalar RSUExampleScenario.node[15].nic.mac1609_4 	ReceivedBroadcasts 	16
scalar RSUExampleScenario.node[15].nic.mac1609_4 	SentPackets 	1
scalar RSUExampleScenario.node[15].nic.mac1609_4 	SNIRLostPackets 	10
scalar RSUExampleScenario.node[15].nic.mac1609_4 	RXTXLostPackets 	0
scalar RSUExampleScenario.node[15].nic.mac1609_4 	TotalLostPackets 	10
scalar RSUExampleScenario.node[15].nic.mac1609_4 	DroppedPacketsInMac 	0
scalar RSUExampleScenario.node[15].nic.mac1609_4 	TooLittleTime 	0
scalar RSUExampleScenario.node[15].nic.mac1609_4 	TimesIntoBackoff 	2
scalar RSUExampleScenario.node[15].nic.mac1609_4 	SlotsBackoff 	5
scalar RSUExampleScenario.node[15].nic.mac1609_4 	NumInternalContention 	0
scalar RSUExampleScenario.node[15].nic.mac1609_4 	totalBusyTime 	0.002113
scalar RSUExampleScenario.node[15].veinsmobility 	startTime 	28
scalar RSUExampleScenario.node[15].veinsmobility 	totalTime 	526
scalar RSUExampleScenario.node[15].veinsmobility 	stopTime 	555
scalar RSUExampleScenario.node[15].veinsmobility 	minSpeed 	0
scalar RSUExampleScenario.node[15].veinsmobility 	maxSpeed 	27.755628853943
scalar RSUExampleScenario.node[15].veinsmobility 	totalDistance 	3402.2634745812
scalar RSUExampleScenario.node[15].veinsmobility 	totalCO2Emission 	1163.7014396574
scalar RSUExampleScenario.node[14].nic.phy80211p 	busyTime 	4.6654205607477e-06
scalar RSUExampleScenario.node[14].nic.mac1609_4 	ReceivedUnicastPackets 	0
scalar RSUExampleScenario.node[14].nic.mac1609_4 	ReceivedBroadcasts 	16
scalar RSUExampleScenario.node[14].nic.mac1609_4 	SentPackets 	1
scalar RSUExampleScenario.node[14].nic.mac1609_4 	SNIRLostPackets 	10
scalar RSUExampleScenario.node[14].nic.mac1609_4 	RXTXLostPackets 	0
scalar RSUExampleScenario.node[14].nic.mac1609_4 	TotalLostPackets 	10
scalar RSUExampleScenario.node[14].nic.mac1609_4 	DroppedPacketsInMac 	0
scalar RSUExampleScenario.node[14].nic.mac1609_4 	TooLittleTime 	0
scalar RSUExampleScenario.node[14].nic.mac1609_4 	TimesIntoBackoff 	1
scalar RSUExampleScenario.node[14].nic.mac1609_4 	SlotsBackoff 	3
scalar RSUExampleScenario.node[14].nic.mac1609_4 	NumInternalContention 	0
scalar RSUExampleScenario.node[14].nic.mac1609_4 	totalBusyTime 	0.002113
scalar RSUExampleScenario.node[14].veinsmobility 	startTime 	27
scalar RSUExampleScenario.node[14].veinsmobility 	totalTime 	534
scalar RSUExampleScenario.node[14].veinsmobility 	stopTime 	562
scalar RSUExampleScenario.node[14].veinsmobility 	minSpeed 	0
scalar RSUExampleScenario.node[14].veinsmobility 	maxSpeed 	27.720864965888
scalar RSUExampleScenario.node[14].veinsmobility 	totalDistance 	3392.8541911691
scalar RSUExampleScenario.node[14].veinsmobility 	totalCO2Emission 	1167.0141897374
scalar RSUExampleScenario.node[33].nic.phy80211p 	busyTime 	5.2650822669104e-06
scalar RSUExampleScenario.node[33].nic.mac1609_4 	ReceivedUnicastPackets 	0
scalar RSUExampleScenario.node[33].nic.mac1609_4 	ReceivedBroadcasts 	23
scalar RSUExampleScenario.node[33].nic.mac1609_4 	SentPackets 	1
scalar RSUExampleScenario.node[33].nic.mac1609_4 	SNIRLostPackets 	7
scalar RSUExampleScenario.node[33].nic.mac1609_4 	RXTXLostPackets 	0
scalar RSUExampleScenario.node[33].nic.mac1609_4 	TotalLostPackets 	7
scalar RSUExampleScenario.node[33].nic.mac1609_4 	DroppedPacketsInMac 	0
scalar RSUExampleScenario.node[33].nic.mac1609_4 	TooLittleTime 	0
scalar RSUExampleScenario.node[33].nic.mac1609_4 	TimesIntoBackoff 	1
scalar RSUExampleScenario.node[33].nic.mac1609_4 	SlotsBackoff 	0
scalar RSUExampleScenario.node[33].nic.mac1609_4 	NumInternalContention 	0
scalar RSUExampleScenario.node[33].nic.mac1609_4 	totalBusyTime 	0.002593052608
scalar RSUExampleScenario.node[33].veinsmobility 	startTime 	60
scalar RSUExampleScenario.node[33].veinsmobility 	totalTime 	546
scalar RSUExampleScenario.node[33].veinsmobility 	stopTime 	607
scalar RSUExampleScenario.node[33].veinsmobility 	minSpeed 	0
scalar RSUExampleScenario.node[33].veinsmobility 	maxSpeed 	27.76664303978
scalar RSUExampleScenario.node[33].veinsmobility 	totalDistance 	3405.0261270787
scalar RSUExampleScenario.node[33].veinsmobility 	totalCO2Emission 	1394.7913928167
scalar RSUExampleScenario.node[39].nic.phy80211p 	busyTime 	7.3846153846154e-06
scalar RSUExampleScenario.node[39].nic.mac1609_4 	ReceivedUnicastPackets 	0
scalar RSUExampleScenario.node[39].nic.mac1609_4 	ReceivedBroadcasts 	30
scalar RSUExampleScenario.node[39].nic.mac1609_4 	SentPackets 	1
scalar RSUExampleScenario.node[39].nic.mac1609_4 	SNIRLostPackets 	12
scalar RSUExampleScenario.node[39].nic.mac1609_4 	RXTXLostPackets 	0
scalar RSUExampleScenario.node[39].nic.mac1609_4 	TotalLostPackets 	12
scalar RSUExampleScenario.node[39].nic.mac1609_4 	DroppedPacketsInMac 	0
scalar RSUExampleScenario.node[39].nic.mac1609_4 	TooLittleTime 	0
scalar RSUExampleScenario.node[39].nic.mac1609_4 	TimesIntoBackoff 	2
scalar RSUExampleScenario.node[39].nic.mac1609_4 	SlotsBackoff 	11
scalar RSUExampleScenario.node[39].nic.mac1609_4 	NumInternalContention 	0
scalar RSUExampleScenario.node[39].nic.mac1609_4 	totalBusyTime 	0.003457
scalar RSUExampleScenario.node[39].veinsmobility 	startTime 	72
scalar RSUExampleScenario.node[39].veinsmobility 	totalTime 	545
scalar RSUExampleScenario.node[39].veinsmobility 	stopTime 	618
scalar RSUExampleScenario.node[39].veinsmobility 	minSpeed 	0
scalar RSUExampleScenario.node[39].veinsmobility 	maxSpeed 	27.711486499114
scalar RSUExampleScenario.node[39].veinsmobility 	totalDistance 	3402.3539545819
scalar RSUExampleScenario.node[39].veinsmobility 	totalCO2Emission 	1408.1356617579
scalar RSUExampleScenario.node[17].nic.phy80211p 	busyTime 	4.0747028862479e-06
scalar RSUExampleScenario.node[17].nic.mac1609_4 	ReceivedUnicastPackets 	0
scalar RSUExampleScenario.node[17].nic.mac1609_4 	ReceivedBroadcasts 	15
scalar RSUExampleScenario.node[17].nic.mac1609_4 	SentPackets 	1
scalar RSUExampleScenario.node[17].nic.mac1609_4 	SNIRLostPackets 	10
scalar RSUExampleScenario.node[17].nic.mac1609_4 	RXTXLostPackets 	0
scalar RSUExampleScenario.node[17].nic.mac1609_4 	TotalLostPackets 	10
scalar RSUExampleScenario.node[17].nic.mac1609_4 	DroppedPacketsInMac 	0
scalar RSUExampleScenario.node[17].nic.mac1609_4 	TooLittleTime 	0
scalar RSUExampleScenario.node[17].nic.mac1609_4 	TimesIntoBackoff 	2
scalar RSUExampleScenario.node[17].nic.mac1609_4 	SlotsBackoff 	5
scalar RSUExampleScenario.node[17].nic.mac1609_4 	NumInternalContention 	0
scalar RSUExampleScenario.node[17].nic.mac1609_4 	totalBusyTime 	0.002017
scalar RSUExampleScenario.node[17].veinsmobility 	startTime 	31
scalar RSUExampleScenario.node[17].veinsmobility 	totalTime 	588
scalar RSUExampleScenario.node[17].veinsmobility 	stopTime 	620
scalar RSUExampleScenario.node[17].veinsmobility 	minSpeed 	0
scalar RSUExampleScenario.node[17].veinsmobility 	maxSpeed 	27.721409319304
scalar RSUExampleScenario.node[17].veinsmobility 	totalDistance 	3404.6848339639
scalar RSUExampleScenario.node[17].veinsmobility 	totalCO2Emission 	1367.2125887885
scalar RSUExampleScenario.node[18].nic.phy80211p 	busyTime 	4.2305084745763e-06
scalar RSUExampleScenario.node[18].nic.mac1609_4 	ReceivedUnicastPackets 	0
scalar RSUExampleScenario.node[18].nic.mac1609_4 	ReceivedBroadcasts 	16
scalar RSUExampleScenario.node[18].nic.mac1609_4 	SentPackets 	1
scalar RSUExampleScenario.node[18].nic.mac1609_4 	SNIRLostPackets 	10
scalar RSUExampleScenario.node[18].nic.mac1609_4 	RXTXLostPackets 	0
scalar RSUExampleScenario.node[18].nic.mac1609_4 	TotalLostPackets 	10
scalar RSUExampleScenario.node[18].nic.mac1609_4 	DroppedPacketsInMac 	0
scalar RSUExampleScenario.node[18].nic.mac1609_4 	TooLittleTime 	0
scalar RSUExampleScenario.node[18].nic.mac1609_4 	TimesIntoBackoff 	1
scalar RSUExampleScenario.node[18].nic.mac1609_4 	SlotsBackoff 	6
scalar RSUExampleScenario.node[18].nic.mac1609_4 	NumInternalContention 	0
scalar RSUExampleScenario.node[18].nic.mac1609_4 	totalBusyTime 	0.002113
scalar RSUExampleScenario.node[18].veinsmobility 	startTime 	33
scalar RSUExampleScenario.node[18].veinsmobility 	totalTime 	589
scalar RSUExampleScenario.node[18].veinsmobility 	stopTime 	623
scalar RSUExampleScenario.node[18].veinsmobility 	minSpeed 	0
scalar RSUExampleScenario.node[18].veinsmobility 	maxSpeed 	27.759899032293
scalar RSUExampleScenario.node[18].veinsmobility 	totalDistance 	3404.7847590678
scalar RSUExampleScenario.node[18].veinsmobility 	totalCO2Emission 	1331.8848951457
scalar RSUExampleScenario.node[51].nic.phy80211p 	busyTime 	3.5820895522388e-06
scalar RSUExampleScenario.node[51].nic.mac1609_4 	ReceivedUnicastPackets 	0
scalar RSUExampleScenario.node[51].nic.mac1609_4 	ReceivedBroadcasts 	15
scalar RSUExampleScenario.node[51].nic.mac1609_4 	SentPackets 	1
scalar RSUExampleScenario.node[51].nic.mac1609_4 	SNIRLostPackets 	5
scalar RSUExampleScenario.node[51].nic.mac1609_4 	RXTXLostPackets 	0
scalar RSUExampleScenario.node[51].nic.mac1609_4 	TotalLostPackets 	5
scalar RSUExampleScenario.node[51].nic.mac1609_4 	DroppedPacketsInMac 	0
scalar RSUExampleScenario.node[51].nic.mac1609_4 	TooLittleTime 	0
scalar RSUExampleScenario.node[51].nic.mac1609_4 	TimesIntoBackoff 	1
scalar RSUExampleScenario.node[51].nic.mac1609_4 	SlotsBackoff 	7
scalar RSUExampleScenario.node[51].nic.mac1609_4 	NumInternalContention 	0
scalar RSUExampleScenario.node[51].nic.mac1609_4 	totalBusyTime 	0.001729
scalar RSUExampleScenario.node[51].veinsmobility 	startTime 	101
scalar RSUExampleScenario.node[51].veinsmobility 	totalTime 	535
scalar RSUExampleScenario.node[51].veinsmobility 	stopTime 	637
scalar RSUExampleScenario.node[51].veinsmobility 	minSpeed 	0
scalar RSUExampleScenario.node[51].veinsmobility 	maxSpeed 	27.774241799443
scalar RSUExampleScenario.node[51].veinsmobility 	totalDistance 	3399.4327055092
scalar RSUExampleScenario.node[51].veinsmobility 	totalCO2Emission 	1179.6239413245
scalar RSUExampleScenario.node[19].nic.phy80211p 	busyTime 	3.9669421487603e-06
scalar RSUExampleScenario.node[19].nic.mac1609_4 	ReceivedUnicastPackets 	0
scalar RSUExampleScenario.node[19].nic.mac1609_4 	ReceivedBroadcasts 	15
scalar RSUExampleScenario.node[19].nic.mac1609_4 	SentPackets 	1
scalar RSUExampleScenario.node[19].nic.mac1609_4 	SNIRLostPackets 	10
scalar RSUExampleScenario.node[19].nic.mac1609_4 	RXTXLostPackets 	1
scalar RSUExampleScenario.node[19].nic.mac1609_4 	TotalLostPackets 	11
scalar RSUExampleScenario.node[19].nic.mac1609_4 	DroppedPacketsInMac 	0
scalar RSUExampleScenario.node[19].nic.mac1609_4 	TooLittleTime 	0
scalar RSUExampleScenario.node[19].nic.mac1609_4 	TimesIntoBackoff 	1
scalar RSUExampleScenario.node[19].nic.mac1609_4 	SlotsBackoff 	5
scalar RSUExampleScenario.node[19].nic.mac1609_4 	NumInternalContention 	0
scalar RSUExampleScenario.node[19].nic.mac1609_4 	totalBusyTime 	0.002017
scalar RSUExampleScenario.node[19].veinsmobility 	startTime 	34
scalar RSUExampleScenario.node[19].veinsmobility 	totalTime 	604
scalar RSUExampleScenario.node[19].veinsmobility 	stopTime 	639
scalar RSUExampleScenario.node[19].veinsmobility 	minSpeed 	0
scalar RSUExampleScenario.node[19].veinsmobility 	maxSpeed 	27.715476451851
scalar RSUExampleScenario.node[19].veinsmobility 	totalDistance 	3402.332453901
scalar RSUExampleScenario.node[19].veinsmobility 	totalCO2Emission 	1341.6660302369
scalar RSUExampleScenario.node[16].nic.phy80211p 	busyTime 	4.078431372549e-06
scalar RSUExampleScenario.node[16].nic.mac1609_4 	ReceivedUnicastPackets 	0
scalar RSUExampleScenario.node[16].nic.mac1609_4 	ReceivedBroadcasts 	16
scalar RSUExampleScenario.node[16].nic.mac1609_4 	SentPackets 	1
scalar RSUExampleScenario.node[16].nic.mac1609_4 	SNIRLostPackets 	10
scalar RSUExampleScenario.node[16].nic.mac1609_4 	RXTXLostPackets 	0
scalar RSUExampleScenario.node[16].nic.mac1609_4 	TotalLostPackets 	10
scalar RSUExampleScenario.node[16].nic.mac1609_4 	DroppedPacketsInMac 	0
scalar RSUExampleScenario.node[16].nic.mac1609_4 	TooLittleTime 	0
scalar RSUExampleScenario.node[16].nic.mac1609_4 	TimesIntoBackoff 	2
scalar RSUExampleScenario.node[16].nic.mac1609_4 	SlotsBackoff 	9
scalar RSUExampleScenario.node[16].nic.mac1609_4 	NumInternalContention 	0
scalar RSUExampleScenario.node[16].nic.mac1609_4 	totalBusyTime 	0.002113
scalar RSUExampleScenario.node[16].veinsmobility 	startTime 	30
scalar RSUExampleScenario.node[16].veinsmobility 	totalTime 	611
scalar RSUExampleScenario.node[16].veinsmobility 	stopTime 	642
scalar RSUExampleScenario.node[16].veinsmobility 	minSpeed 	0
scalar RSUExampleScenario.node[16].veinsmobility 	maxSpeed 	27.646818479709
scalar RSUExampleScenario.node[16].veinsmobility 	totalDistance 	3406.4675693145
scalar RSUExampleScenario.node[16].veinsmobility 	totalCO2Emission 	1339.1440146058
scalar RSUExampleScenario.node[27].nic.phy80211p 	busyTime 	5.163025210084e-06
scalar RSUExampleScenario.node[27].nic.mac1609_4 	ReceivedUnicastPackets 	0
scalar RSUExampleScenario.node[27].nic.mac1609_4 	ReceivedBroadcasts 	20
scalar RSUExampleScenario.node[27].nic.mac1609_4 	SentPackets 	1
scalar RSUExampleScenario.node[27].nic.mac1609_4 	SNIRLostPackets 	12
scalar RSUExampleScenario.node[27].nic.mac1609_4 	RXTXLostPackets 	0
scalar RSUExampleScenario.node[27].nic.mac1609_4 	TotalLostPackets 	12
scalar RSUExampleScenario.node[27].nic.mac1609_4 	DroppedPacketsInMac 	0
scalar RSUExampleScenario.node[27].nic.mac1609_4 	TooLittleTime 	0
scalar RSUExampleScenario.node[27].nic.mac1609_4 	TimesIntoBackoff 	1
scalar RSUExampleScenario.node[27].nic.mac1609_4 	SlotsBackoff 	6
scalar RSUExampleScenario.node[27].nic.mac1609_4 	NumInternalContention 	0
scalar RSUExampleScenario.node[27].nic.mac1609_4 	totalBusyTime 	0.002497
scalar RSUExampleScenario.node[27].veinsmobility 	startTime 	49
scalar RSUExampleScenario.node[27].veinsmobility 	totalTime 	594
scalar RSUExampleScenario.node[27].veinsmobility 	stopTime 	644
scalar RSUExampleScenario.node[27].veinsmobility 	minSpeed 	0
scalar RSUExampleScenario.node[27].veinsmobility 	maxSpeed 	16.661330709653
scalar RSUExampleScenario.node[27].veinsmobility 	totalDistance 	3345.3561653852
scalar RSUExampleScenario.node[27].veinsmobility 	totalCO2Emission 	1154.7381965878
scalar RSUExampleScenario.node[28].nic.phy80211p 	busyTime 	5.0016806722689e-06
scalar RSUExampleScenario.node[28].nic.mac1609_4 	ReceivedUnicastPackets 	0
scalar RSUExampleScenario.node[28].nic.mac1609_4 	ReceivedBroadcasts 	19
scalar RSUExampleScenario.node[28].nic.mac1609_4 	SentPackets 	1
scalar RSUExampleScenario.node[28].nic.mac1609_4 	SNIRLostPackets 	12
scalar RSUExampleScenario.node[28].nic.mac1609_4 	RXTXLostPackets 	0
scalar RSUExampleScenario.node[28].nic.mac1609_4 	TotalLostPackets 	12
scalar RSUExampleScenario.node[28].nic.mac1609_4 	DroppedPacketsInMac 	0
scalar RSUExampleScenario.node[28].nic.mac1609_4 	TooLittleTime 	0
scalar RSUExampleScenario.node[28].nic.mac1609_4 	TimesIntoBackoff 	2
scalar RSUExampleScenario.node[28].nic.mac1609_4 	SlotsBackoff 	7
scalar RSUExampleScenario.node[28].nic.mac1609_4 	NumInternalContention 	0
scalar RSUExampleScenario.node[28].nic.mac1609_4 	totalBusyTime 	0.002401
scalar RSUExampleScenario.node[28].veinsmobility 	startTime 	51
scalar RSUExampleScenario.node[28].veinsmobility 	totalTime 	594
scalar RSUExampleScenario.node[28].veinsmobility 	stopTime 	646
scalar RSUExampleScenario.node[28].veinsmobility 	minSpeed 	0
scalar RSUExampleScenario.node[28].veinsmobility 	maxSpeed 	16.665863460475
scalar RSUExampleScenario.node[28].veinsmobility 	totalDistance 	3348.5337066781
scalar RSUExampleScenario.node[28].veinsmobility 	totalCO2Emission 	1149.8642841402
scalar RSUExampleScenario.node[30].nic.phy80211p 	busyTime 	5.010101010101e-06
scalar RSUExampleScenario.node[30].nic.mac1609_4 	ReceivedUnicastPackets 	0
scalar RSUExampleScenario.node[30].nic.mac1609_4 	ReceivedBroadcasts 	19
scalar RSUExampleScenario.node[30].nic.mac1609_4 	SentPackets 	1
scalar RSUExampleScenario.node[30].nic.mac1609_4 	SNIRLostPackets 	12
scalar RSUExampleScenario.node[30].nic.mac1609_4 	RXTXLostPackets 	0
scalar RSUExampleScenario.node[30].nic.mac1609_4 	TotalLostPackets 	12
scalar RSUExampleScenario.node[30].nic.mac1609_4 	DroppedPacketsInMac 	0
scalar RSUExampleScenario.node[30].nic.mac1609_4 	TooLittleTime 	0
scalar RSUExampleScenario.node[30].nic.mac1609_4 	TimesIntoBackoff 	1
scalar RSUExampleScenario.node[30].nic.mac1609_4 	SlotsBackoff 	7
scalar RSUExampleScenario.node[30].nic.mac1609_4 	NumInternalContention 	0
scalar RSUExampleScenario.node[30].nic.mac1609_4 	totalBusyTime 	0.002478985721
scalar RSUExampleScenario.node[30].veinsmobility 	startTime 	55
scalar RSUExampleScenario.node[30].veinsmobility 	totalTime 	593
scalar RSUExampleScenario.node[30].veinsmobility 	stopTime 	649
scalar RSUExampleScenario.node[30].veinsmobility 	minSpeed 	0
scalar RSUExampleScenario.node[30].veinsmobility 	maxSpeed 	16.669009088948
scalar RSUExampleScenario.node[30].veinsmobility 	totalDistance 	3256.5541728482
scalar RSUExampleScenario.node[30].veinsmobility 	totalCO2Emission 	1144.0619317599
scalar RSUExampleScenario.node[58].nic.phy80211p 	busyTime 	3.7752808988764e-06
scalar RSUExampleScenario.node[58].nic.mac1609_4 	ReceivedUnicastPackets 	0
scalar RSUExampleScenario.node[58].nic.mac1609_4 	ReceivedBroadcasts 	16
scalar RSUExampleScenario.node[58].nic.mac1609_4 	SentPackets 	1
scalar RSUExampleScenario.node[58].nic.mac1609_4 	SNIRLostPackets 	5
scalar RSUExampleScenario.node[58].nic.mac1609_4 	RXTXLostPackets 	0
scalar RSUExampleScenario.node[58].nic.mac1609_4 	TotalLostPackets 	5
scalar RSUExampleScenario.node[58].nic.mac1609_4 	DroppedPacketsInMac 	0
scalar RSUExampleScenario.node[58].nic.mac1609_4 	TooLittleTime 	0
scalar RSUExampleScenario.node[58].nic.mac1609_4 	TimesIntoBackoff 	2
scalar RSUExampleScenario.node[58].nic.mac1609_4 	SlotsBackoff 	9
scalar RSUExampleScenario.node[58].nic.mac1609_4 	NumInternalContention 	0
scalar RSUExampleScenario.node[58].nic.mac1609_4 	totalBusyTime 	0.0018251475
scalar RSUExampleScenario.node[58].veinsmobility 	startTime 	117
scalar RSUExampleScenario.node[58].veinsmobility 	totalTime 	533
scalar RSUExampleScenario.node[58].veinsmobility 	stopTime 	651
scalar RSUExampleScenario.node[58].veinsmobility 	minSpeed 	0
scalar RSUExampleScenario.node[58].veinsmobility 	maxSpeed 	27.77562703114
scalar RSUExampleScenario.node[58].veinsmobility 	totalDistance 	3394.5419424889
scalar RSUExampleScenario.node[58].veinsmobility 	totalCO2Emission 	1255.3088818735
scalar RSUExampleScenario.node[52].nic.phy80211p 	busyTime 	3.6588021778584e-06
scalar RSUExampleScenario.node[52].nic.mac1609_4 	ReceivedUnicastPackets 	0
scalar RSUExampleScenario.node[52].nic.mac1609_4 	ReceivedBroadcasts 	16
scalar RSUExampleScenario.node[52].nic.mac1609_4 	SentPackets 	1
scalar RSUExampleScenario.node[52].nic.mac1609_4 	SNIRLostPackets 	5
scalar RSUExampleScenario.node[52].nic.mac1609_4 	RXTXLostPackets 	0
scalar RSUExampleScenario.node[52].nic.mac1609_4 	TotalLostPackets 	5
scalar RSUExampleScenario.node[52].nic.mac1609_4 	DroppedPacketsInMac 	0
scalar RSUExampleScenario.node[52].nic.mac1609_4 	TooLittleTime 	0
scalar RSUExampleScenario.node[52].nic.mac1609_4 	TimesIntoBackoff 	1
scalar RSUExampleScenario.node[52].nic.mac1609_4 	SlotsBackoff 	3
scalar RSUExampleScenario.node[52].nic.mac1609_4 	NumInternalContention 	0
scalar RSUExampleScenario.node[52].nic.mac1609_4 	totalBusyTime 	0.001825
scalar RSUExampleScenario.node[52].veinsmobility 	startTime 	103
scalar RSUExampleScenario.node[52].veinsmobility 	totalTime 	550
scalar RSUExampleScenario.node[52].veinsmobility 	stopTime 	654
scalar RSUExampleScenario.node[52].veinsmobility 	minSpeed 	0
scalar RSUExampleScenario.node[52].veinsmobility 	maxSpeed 	27.697603136646
scalar RSUExampleScenario.node[52].veinsmobility 	totalDistance 	3406.3535233209
scalar RSUExampleScenario.node[52].veinsmobility 	totalCO2Emission 	1288.200458645
scalar RSUExampleScenario.node[29].nic.phy80211p 	busyTime 	4.9353233830846e-06
scalar RSUExampleScenario.node[29].nic.mac1609_4 	ReceivedUnicastPackets 	0
scalar RSUExampleScenario.node[29].nic.mac1609_4 	ReceivedBroadcasts 	19
scalar RSUExampleScenario.node[29].nic.mac1609_4 	SentPackets 	1
scalar RSUExampleScenario.node[29].nic.mac1609_4 	SNIRLostPackets 	12
scalar RSUExampleScenario.node[29].nic.mac1609_4 	RXTXLostPackets 	0
scalar RSUExampleScenario.node[29].nic.mac1609_4 	TotalLostPackets 	12
scalar RSUExampleScenario.node[29].nic.mac1609_4 	DroppedPacketsInMac 	0
scalar RSUExampleScenario.node[29].nic.mac1609_4 	TooLittleTime 	0
scalar RSUExampleScenario.node[29].nic.mac1609_4 	TimesIntoBackoff 	1
scalar RSUExampleScenario.node[29].nic.mac1609_4 	SlotsBackoff 	2
scalar RSUExampleScenario.node[29].nic.mac1609_4 	NumInternalContention 	0
scalar RSUExampleScenario.node[29].nic.mac1609_4 	totalBusyTime 	0.002401
scalar RSUExampleScenario.node[29].veinsmobility 	startTime 	53
scalar RSUExampleScenario.node[29].veinsmobility 	totalTime 	602
scalar RSUExampleScenario.node[29].veinsmobility 	stopTime 	656
scalar RSUExampleScenario.node[29].veinsmobility 	minSpeed 	0
scalar RSUExampleScenario.node[29].veinsmobility 	maxSpeed 	16.667371813022
scalar RSUExampleScenario.node[29].veinsmobility 	totalDistance 	3257.7497425461
scalar RSUExampleScenario.node[29].veinsmobility 	totalCO2Emission 	1175.0220614897
scalar RSUExampleScenario.node[56].nic.phy80211p 	busyTime 	3.6923076923077e-06
scalar RSUExampleScenario.node[56].nic.mac1609_4 	ReceivedUnicastPackets 	0
scalar RSUExampleScenario.node[56].nic.mac1609_4 	ReceivedBroadcasts 	16
scalar RSUExampleScenario.node[56].nic.mac1609_4 	SentPackets 	1
scalar RSUExampleScenario.node[56].nic.mac1609_4 	SNIRLostPackets 	5
scalar RSUExampleScenario.node[56].nic.mac1609_4 	RXTXLostPackets 	0
scalar RSUExampleScenario.node[56].nic.mac1609_4 	TotalLostPackets 	5
scalar RSUExampleScenario.node[56].nic.mac1609_4 	DroppedPacketsInMac 	0
scalar RSUExampleScenario.node[56].nic.mac1609_4 	TooLittleTime 	0
scalar RSUExampleScenario.node[56].nic.mac1609_4 	TimesIntoBackoff 	1
scalar RSUExampleScenario.node[56].nic.mac1609_4 	SlotsBackoff 	0
scalar RSUExampleScenario.node[56].nic.mac1609_4 	NumInternalContention 	0
scalar RSUExampleScenario.node[56].nic.mac1609_4 	totalBusyTime 	0.001825045334
scalar RSUExampleScenario.node[56].veinsmobility 	startTime 	112
scalar RSUExampleScenario.node[56].veinsmobility 	totalTime 	545
scalar RSUExampleScenario.node[56].veinsmobility 	stopTime 	658
scalar RSUExampleScenario.node[56].veinsmobility 	minSpeed 	0
scalar RSUExampleScenario.node[56].veinsmobility 	maxSpeed 	27.643120865741
scalar RSUExampleScenario.node[56].veinsmobility 	totalDistance 	3397.1158219223
scalar RSUExampleScenario.node[56].veinsmobility 	totalCO2Emission 	1230.6530676366
scalar RSUExampleScenario.node[53].nic.phy80211p 	busyTime 	3.6324324324324e-06
scalar RSUExampleScenario.node[53].nic.mac1609_4 	ReceivedUnicastPackets 	0
scalar RSUExampleScenario.node[53].nic.mac1609_4 	ReceivedBroadcasts 	16
scalar RSUExampleScenario.node[53].nic.mac1609_4 	SentPackets 	1
scalar RSUExampleScenario.node[53].nic.mac1609_4 	SNIRLostPackets 	5
scalar RSUExampleScenario.node[53].nic.mac1609_4 	RXTXLostPackets 	0
scalar RSUExampleScenario.node[53].nic.mac1609_4 	TotalLostPackets 	5
scalar RSUExampleScenario.node[53].nic.mac1609_4 	DroppedPacketsInMac 	0
scalar RSUExampleScenario.node[53].nic.mac1609_4 	TooLittleTime 	0
scalar RSUExampleScenario.node[53].nic.mac1609_4 	TimesIntoBackoff 	1
scalar RSUExampleScenario.node[53].nic.mac1609_4 	SlotsBackoff 	4
scalar RSUExampleScenario.node[53].nic.mac1609_4 	NumInternalContention 	0
scalar RSUExampleScenario.node[53].nic.mac1609_4 	totalBusyTime 	0.001825
scalar RSUExampleScenario.node[53].veinsmobility 	startTime 	106
scalar RSUExampleScenario.node[53].veinsmobility 	totalTime 	554
scalar RSUExampleScenario.node[53].veinsmobility 	stopTime 	661
scalar RSUExampleScenario.node[53].veinsmobility 	minSpeed 	0
scalar RSUExampleScenario.node[53].veinsmobility 	maxSpeed 	27.749591382453
scalar RSUExampleScenario.node[53].veinsmobility 	totalDistance 	3404.9126844985
scalar RSUExampleScenario.node[53].veinsmobility 	totalCO2Emission 	1256.8474419613
scalar RSUExampleScenario.node[54].nic.phy80211p 	busyTime 	3.6193895870736e-06
scalar RSUExampleScenario.node[54].nic.mac1609_4 	ReceivedUnicastPackets 	0
scalar RSUExampleScenario.node[54].nic.mac1609_4 	ReceivedBroadcasts 	16
scalar RSUExampleScenario.node[54].nic.mac1609_4 	SentPackets 	1
scalar RSUExampleScenario.node[54].nic.mac1609_4 	SNIRLostPackets 	5
scalar RSUExampleScenario.node[54].nic.mac1609_4 	RXTXLostPackets 	0
scalar RSUExampleScenario.node[54].nic.mac1609_4 	TotalLostPackets 	5
scalar RSUExampleScenario.node[54].nic.mac1609_4 	DroppedPacketsInMac 	0
scalar RSUExampleScenario.node[54].nic.mac1609_4 	TooLittleTime 	0
scalar RSUExampleScenario.node[54].nic.mac1609_4 	TimesIntoBackoff 	1
scalar RSUExampleScenario.node[54].nic.mac1609_4 	SlotsBackoff 	3
scalar RSUExampleScenario.node[54].nic.mac1609_4 	NumInternalContention 	0
scalar RSUExampleScenario.node[54].nic.mac1609_4 	totalBusyTime 	0.001825
scalar RSUExampleScenario.node[54].veinsmobility 	startTime 	108
scalar RSUExampleScenario.node[54].veinsmobility 	totalTime 	556
scalar RSUExampleScenario.node[54].veinsmobility 	stopTime 	665
scalar RSUExampleScenario.node[54].veinsmobility 	minSpeed 	0
scalar RSUExampleScenario.node[54].veinsmobility 	maxSpeed 	27.756732342541
scalar RSUExampleScenario.node[54].veinsmobility 	totalDistance 	3398.3532621113
scalar RSUExampleScenario.node[54].veinsmobility 	totalCO2Emission 	1264.1816557236
scalar RSUExampleScenario.node[57].nic.phy80211p 	busyTime 	3.6455696202532e-06
scalar RSUExampleScenario.node[57].nic.mac1609_4 	ReceivedUnicastPackets 	0
scalar RSUExampleScenario.node[57].nic.mac1609_4 	ReceivedBroadcasts 	16
scalar RSUExampleScenario.node[57].nic.mac1609_4 	SentPackets 	1
scalar RSUExampleScenario.node[57].nic.mac1609_4 	SNIRLostPackets 	5
scalar RSUExampleScenario.node[57].nic.mac1609_4 	RXTXLostPackets 	0
scalar RSUExampleScenario.node[57].nic.mac1609_4 	TotalLostPackets 	5
scalar RSUExampleScenario.node[57].nic.mac1609_4 	DroppedPacketsInMac 	0
scalar RSUExampleScenario.node[57].nic.mac1609_4 	TooLittleTime 	0
scalar RSUExampleScenario.node[57].nic.mac1609_4 	TimesIntoBackoff 	1
scalar RSUExampleScenario.node[57].nic.mac1609_4 	SlotsBackoff 	1
scalar RSUExampleScenario.node[57].nic.mac1609_4 	NumInternalContention 	0
scalar RSUExampleScenario.node[57].nic.mac1609_4 	totalBusyTime 	0.001825090008
scalar RSUExampleScenario.node[57].veinsmobility 	startTime 	114
scalar RSUExampleScenario.node[57].veinsmobility 	totalTime 	552
scalar RSUExampleScenario.node[57].veinsmobility 	stopTime 	667
scalar RSUExampleScenario.node[57].veinsmobility 	minSpeed 	0
scalar RSUExampleScenario.node[57].veinsmobility 	maxSpeed 	27.777045677165
scalar RSUExampleScenario.node[57].veinsmobility 	totalDistance 	3406.5367551429
scalar RSUExampleScenario.node[57].veinsmobility 	totalCO2Emission 	1183.5503396593
scalar RSUExampleScenario.node[59].nic.phy80211p 	busyTime 	3.84e-06
scalar RSUExampleScenario.node[59].nic.mac1609_4 	ReceivedUnicastPackets 	0
scalar RSUExampleScenario.node[59].nic.mac1609_4 	ReceivedBroadcasts 	18
scalar RSUExampleScenario.node[59].nic.mac1609_4 	SentPackets 	1
scalar RSUExampleScenario.node[59].nic.mac1609_4 	SNIRLostPackets 	4
scalar RSUExampleScenario.node[59].nic.mac1609_4 	RXTXLostPackets 	1
scalar RSUExampleScenario.node[59].nic.mac1609_4 	TotalLostPackets 	5
scalar RSUExampleScenario.node[59].nic.mac1609_4 	DroppedPacketsInMac 	0
scalar RSUExampleScenario.node[59].nic.mac1609_4 	TooLittleTime 	0
scalar RSUExampleScenario.node[59].nic.mac1609_4 	TimesIntoBackoff 	1
scalar RSUExampleScenario.node[59].nic.mac1609_4 	SlotsBackoff 	4
scalar RSUExampleScenario.node[59].nic.mac1609_4 	NumInternalContention 	0
scalar RSUExampleScenario.node[59].nic.mac1609_4 	totalBusyTime 	0.001921
scalar RSUExampleScenario.node[59].veinsmobility 	startTime 	119
scalar RSUExampleScenario.node[59].veinsmobility 	totalTime 	549
scalar RSUExampleScenario.node[59].veinsmobility 	stopTime 	669
scalar RSUExampleScenario.node[59].veinsmobility 	minSpeed 	0
scalar RSUExampleScenario.node[59].veinsmobility 	maxSpeed 	27.51622031317
scalar RSUExampleScenario.node[59].veinsmobility 	totalDistance 	3393.0863116122
scalar RSUExampleScenario.node[59].veinsmobility 	totalCO2Emission 	1171.299614363
scalar RSUExampleScenario.node[34].nic.phy80211p 	busyTime 	4.2491803278689e-06
scalar RSUExampleScenario.node[34].nic.mac1609_4 	ReceivedUnicastPackets 	0
scalar RSUExampleScenario.node[34].nic.mac1609_4 	ReceivedBroadcasts 	20
scalar RSUExampleScenario.node[34].nic.mac1609_4 	SentPackets 	1
scalar RSUExampleScenario.node[34].nic.mac1609_4 	SNIRLostPackets 	7
scalar RSUExampleScenario.node[34].nic.mac1609_4 	RXTXLostPackets 	0
scalar RSUExampleScenario.node[34].nic.mac1609_4 	TotalLostPackets 	7
scalar RSUExampleScenario.node[34].nic.mac1609_4 	DroppedPacketsInMac 	0
scalar RSUExampleScenario.node[34].nic.mac1609_4 	TooLittleTime 	0
scalar RSUExampleScenario.node[34].nic.mac1609_4 	TimesIntoBackoff 	2
scalar RSUExampleScenario.node[34].nic.mac1609_4 	SlotsBackoff 	9
scalar RSUExampleScenario.node[34].nic.mac1609_4 	NumInternalContention 	0
scalar RSUExampleScenario.node[34].nic.mac1609_4 	totalBusyTime 	0.002305053721
scalar RSUExampleScenario.node[34].veinsmobility 	startTime 	62
scalar RSUExampleScenario.node[34].veinsmobility 	totalTime 	609
scalar RSUExampleScenario.node[34].veinsmobility 	stopTime 	672
scalar RSUExampleScenario.node[34].veinsmobility 	minSpeed 	0
scalar RSUExampleScenario.node[34].veinsmobility 	maxSpeed 	16.621560829524
scalar RSUExampleScenario.node[34].veinsmobility 	totalDistance 	3259.5190692637
scalar RSUExampleScenario.node[34].veinsmobility 	totalCO2Emission 	1157.279234434
scalar RSUExampleScenario.node[62].nic.phy80211p 	busyTime 	4.9051094890511e-06
scalar RSUExampleScenario.node[62].nic.mac1609_4 	ReceivedUnicastPackets 	0
scalar RSUExampleScenario.node[62].nic.mac1609_4 	ReceivedBroadcasts 	17
scalar RSUExampleScenario.node[62].nic.mac1609_4 	SentPackets 	1
scalar RSUExampleScenario.node[62].nic.mac1609_4 	SNIRLostPackets 	11
scalar RSUExampleScenario.node[62].nic.mac1609_4 	RXTXLostPackets 	2
scalar RSUExampleScenario.node[62].nic.mac1609_4 	TotalLostPackets 	13
scalar RSUExampleScenario.node[62].nic.mac1609_4 	DroppedPacketsInMac 	0
scalar RSUExampleScenario.node[62].nic.mac1609_4 	TooLittleTime 	0
scalar RSUExampleScenario.node[62].nic.mac1609_4 	TimesIntoBackoff 	1
scalar RSUExampleScenario.node[62].nic.mac1609_4 	SlotsBackoff 	5
scalar RSUExampleScenario.node[62].nic.mac1609_4 	NumInternalContention 	0
scalar RSUExampleScenario.node[62].nic.mac1609_4 	totalBusyTime 	0.002209153615
scalar RSUExampleScenario.node[62].veinsmobility 	startTime 	126
scalar RSUExampleScenario.node[62].veinsmobility 	totalTime 	547
scalar RSUExampleScenario.node[62].veinsmobility 	stopTime 	674
scalar RSUExampleScenario.node[62].veinsmobility 	minSpeed 	0
scalar RSUExampleScenario.node[62].veinsmobility 	maxSpeed 	27.775721943453
scalar RSUExampleScenario.node[62].veinsmobility 	totalDistance 	3402.5369080932
scalar RSUExampleScenario.node[62].veinsmobility 	totalCO2Emission 	1202.7530670192
scalar RSUExampleScenario.node[60].nic.phy80211p 	busyTime 	4.6702702702703e-06
scalar RSUExampleScenario.node[60].nic.mac1609_4 	ReceivedUnicastPackets 	0
scalar RSUExampleScenario.node[60].nic.mac1609_4 	ReceivedBroadcasts 	14
scalar RSUExampleScenario.node[60].nic.mac1609_4 	SentPackets 	1
scalar RSUExampleScenario.node[60].nic.mac1609_4 	SNIRLostPackets 	13
scalar RSUExampleScenario.node[60].nic.mac1609_4 	RXTXLostPackets 	0
scalar RSUExampleScenario.node[60].nic.mac1609_4 	TotalLostPackets 	13
scalar RSUExampleScenario.node[60].nic.mac1609_4 	DroppedPacketsInMac 	0
scalar RSUExampleScenario.node[60].nic.mac1609_4 	TooLittleTime 	0
scalar RSUExampleScenario.node[60].nic.mac1609_4 	TimesIntoBackoff 	1
scalar RSUExampleScenario.node[60].nic.mac1609_4 	SlotsBackoff 	1
scalar RSUExampleScenario.node[60].nic.mac1609_4 	NumInternalContention 	0
scalar RSUExampleScenario.node[60].nic.mac1609_4 	totalBusyTime 	0.002017133367
scalar RSUExampleScenario.node[60].veinsmobility 	startTime 	121
scalar RSUExampleScenario.node[60].veinsmobility 	totalTime 	554
scalar RSUExampleScenario.node[60].veinsmobility 	stopTime 	676
scalar RSUExampleScenario.node[60].veinsmobility 	minSpeed 	0
scalar RSUExampleScenario.node[60].veinsmobility 	maxSpeed 	27.777777286228
scalar RSUExampleScenario.node[60].veinsmobility 	totalDistance 	3396.3882365202
scalar RSUExampleScenario.node[60].veinsmobility 	totalCO2Emission 	1205.7820547365
scalar RSUExampleScenario.node[61].nic.phy80211p 	busyTime 	4.6702702702703e-06
scalar RSUExampleScenario.node[61].nic.mac1609_4 	ReceivedUnicastPackets 	0
scalar RSUExampleScenario.node[61].nic.mac1609_4 	ReceivedBroadcasts 	16
scalar RSUExampleScenario.node[61].nic.mac1609_4 	SentPackets 	1
scalar RSUExampleScenario.node[61].nic.mac1609_4 	SNIRLostPackets 	11
scalar RSUExampleScenario.node[61].nic.mac1609_4 	RXTXLostPackets 	1
scalar RSUExampleScenario.node[61].nic.mac1609_4 	TotalLostPackets 	12
scalar RSUExampleScenario.node[61].nic.mac1609_4 	DroppedPacketsInMac 	0
scalar RSUExampleScenario.node[61].nic.mac1609_4 	TooLittleTime 	0
scalar RSUExampleScenario.node[61].nic.mac1609_4 	TimesIntoBackoff 	1
scalar RSUExampleScenario.node[61].nic.mac1609_4 	SlotsBackoff 	5
scalar RSUExampleScenario.node[61].nic.mac1609_4 	NumInternalContention 	0
scalar RSUExampleScenario.node[61].nic.mac1609_4 	totalBusyTime 	0.002113000493
scalar RSUExampleScenario.node[61].veinsmobility 	startTime 	124
scalar RSUExampleScenario.node[61].veinsmobility 	totalTime 	554
scalar RSUExampleScenario.node[61].veinsmobility 	stopTime 	679
scalar RSUExampleScenario.node[61].veinsmobility 	minSpeed 	0
scalar RSUExampleScenario.node[61].veinsmobility 	maxSpeed 	27.770653451188
scalar RSUExampleScenario.node[61].veinsmobility 	totalDistance 	3404.5005029665
scalar RSUExampleScenario.node[61].veinsmobility 	totalCO2Emission 	1227.6594972064
scalar RSUExampleScenario.node[55].nic.phy80211p 	busyTime 	3.1943957968476e-06
scalar RSUExampleScenario.node[55].nic.mac1609_4 	ReceivedUnicastPackets 	0
scalar RSUExampleScenario.node[55].nic.mac1609_4 	ReceivedBroadcasts 	17
scalar RSUExampleScenario.node[55].nic.mac1609_4 	SentPackets 	1
scalar RSUExampleScenario.node[55].nic.mac1609_4 	SNIRLostPackets 	2
scalar RSUExampleScenario.node[55].nic.mac1609_4 	RXTXLostPackets 	2
scalar RSUExampleScenario.node[55].nic.mac1609_4 	TotalLostPackets 	4
scalar RSUExampleScenario.node[55].nic.mac1609_4 	DroppedPacketsInMac 	0
scalar RSUExampleScenario.node[55].nic.mac1609_4 	TooLittleTime 	0
scalar RSUExampleScenario.node[55].nic.mac1609_4 	TimesIntoBackoff 	2
scalar RSUExampleScenario.node[55].nic.mac1609_4 	SlotsBackoff 	10
scalar RSUExampleScenario.node[55].nic.mac1609_4 	NumInternalContention 	0
scalar RSUExampleScenario.node[55].nic.mac1609_4 	totalBusyTime 	0.001825
scalar RSUExampleScenario.node[55].veinsmobility 	startTime 	110
scalar RSUExampleScenario.node[55].veinsmobility 	totalTime 	570
scalar RSUExampleScenario.node[55].veinsmobility 	stopTime 	681
scalar RSUExampleScenario.node[55].veinsmobility 	minSpeed 	0
scalar RSUExampleScenario.node[55].veinsmobility 	maxSpeed 	27.777277005212
scalar RSUExampleScenario.node[55].veinsmobility 	totalDistance 	3399.9075482342
scalar RSUExampleScenario.node[55].veinsmobility 	totalCO2Emission 	1220.360788994
scalar RSUExampleScenario.node[31].nic.phy80211p 	busyTime 	4.4401913875598e-06
scalar RSUExampleScenario.node[31].nic.mac1609_4 	ReceivedUnicastPackets 	0
scalar RSUExampleScenario.node[31].nic.mac1609_4 	ReceivedBroadcasts 	20
scalar RSUExampleScenario.node[31].nic.mac1609_4 	SentPackets 	1
scalar RSUExampleScenario.node[31].nic.mac1609_4 	SNIRLostPackets 	9
scalar RSUExampleScenario.node[31].nic.mac1609_4 	RXTXLostPackets 	2
scalar RSUExampleScenario.node[31].nic.mac1609_4 	TotalLostPackets 	11
scalar RSUExampleScenario.node[31].nic.mac1609_4 	DroppedPacketsInMac 	0
scalar RSUExampleScenario.node[31].nic.mac1609_4 	TooLittleTime 	0
scalar RSUExampleScenario.node[31].nic.mac1609_4 	TimesIntoBackoff 	2
scalar RSUExampleScenario.node[31].nic.mac1609_4 	SlotsBackoff 	5
scalar RSUExampleScenario.node[31].nic.mac1609_4 	NumInternalContention 	0
scalar RSUExampleScenario.node[31].nic.mac1609_4 	totalBusyTime 	0.002478947871
scalar RSUExampleScenario.node[31].veinsmobility 	startTime 	56
scalar RSUExampleScenario.node[31].veinsmobility 	totalTime 	626
scalar RSUExampleScenario.node[31].veinsmobility 	stopTime 	683
scalar RSUExampleScenario.node[31].veinsmobility 	minSpeed 	0
scalar RSUExampleScenario.node[31].veinsmobility 	maxSpeed 	16.666145939371
scalar RSUExampleScenario.node[31].veinsmobility 	totalDistance 	3257.3838390181
scalar RSUExampleScenario.node[31].veinsmobility 	totalCO2Emission 	1159.5128985247
scalar RSUExampleScenario.node[65].nic.phy80211p 	busyTime 	6.5967450271248e-06
scalar RSUExampleScenario.node[65].nic.mac1609_4 	ReceivedUnicastPackets 	0
scalar RSUExampleScenario.node[65].nic.mac1609_4 	ReceivedBroadcasts 	16
scalar RSUExampleScenario.node[65].nic.mac1609_4 	SentPackets 	1
scalar RSUExampleScenario.node[65].nic.mac1609_4 	SNIRLostPackets 	22
scalar RSUExampleScenario.node[65].nic.mac1609_4 	RXTXLostPackets 	1
scalar RSUExampleScenario.node[65].nic.mac1609_4 	TotalLostPackets 	23
scalar RSUExampleScenario.node[65].nic.mac1609_4 	DroppedPacketsInMac 	0
scalar RSUExampleScenario.node[65].nic.mac1609_4 	TooLittleTime 	0
scalar RSUExampleScenario.node[65].nic.mac1609_4 	TimesIntoBackoff 	1
scalar RSUExampleScenario.node[65].nic.mac1609_4 	SlotsBackoff 	5
scalar RSUExampleScenario.node[65].nic.mac1609_4 	NumInternalContention 	0
scalar RSUExampleScenario.node[65].nic.mac1609_4 	totalBusyTime 	0.002401
scalar RSUExampleScenario.node[65].veinsmobility 	startTime 	133
scalar RSUExampleScenario.node[65].veinsmobility 	totalTime 	552
scalar RSUExampleScenario.node[65].veinsmobility 	stopTime 	686
scalar RSUExampleScenario.node[65].veinsmobility 	minSpeed 	0
scalar RSUExampleScenario.node[65].veinsmobility 	maxSpeed 	27.634558223371
scalar RSUExampleScenario.node[65].veinsmobility 	totalDistance 	3409.6616027706
scalar RSUExampleScenario.node[65].veinsmobility 	totalCO2Emission 	1300.5113216034
scalar RSUExampleScenario.node[68].nic.phy80211p 	busyTime 	7.7080291970803e-06
scalar RSUExampleScenario.node[68].nic.mac1609_4 	ReceivedUnicastPackets 	0
scalar RSUExampleScenario.node[68].nic.mac1609_4 	ReceivedBroadcasts 	18
scalar RSUExampleScenario.node[68].nic.mac1609_4 	SentPackets 	1
scalar RSUExampleScenario.node[68].nic.mac1609_4 	SNIRLostPackets 	26
scalar RSUExampleScenario.node[68].nic.mac1609_4 	RXTXLostPackets 	0
scalar RSUExampleScenario.node[68].nic.mac1609_4 	TotalLostPackets 	26
scalar RSUExampleScenario.node[68].nic.mac1609_4 	DroppedPacketsInMac 	0
scalar RSUExampleScenario.node[68].nic.mac1609_4 	TooLittleTime 	0
scalar RSUExampleScenario.node[68].nic.mac1609_4 	TimesIntoBackoff 	1
scalar RSUExampleScenario.node[68].nic.mac1609_4 	SlotsBackoff 	5
scalar RSUExampleScenario.node[68].nic.mac1609_4 	NumInternalContention 	0
scalar RSUExampleScenario.node[68].nic.mac1609_4 	totalBusyTime 	0.002785
scalar RSUExampleScenario.node[68].veinsmobility 	startTime 	140
scalar RSUExampleScenario.node[68].veinsmobility 	totalTime 	547
scalar RSUExampleScenario.node[68].veinsmobility 	stopTime 	688
scalar RSUExampleScenario.node[68].veinsmobility 	minSpeed 	0
scalar RSUExampleScenario.node[68].veinsmobility 	maxSpeed 	27.769049671339
scalar RSUExampleScenario.node[68].veinsmobility 	totalDistance 	3409.6375807971
scalar RSUExampleScenario.node[68].veinsmobility 	totalCO2Emission 	1247.4868509558
scalar RSUExampleScenario.node[32].nic.phy80211p 	busyTime 	4.1012658227848e-06
scalar RSUExampleScenario.node[32].nic.mac1609_4 	ReceivedUnicastPackets 	0
scalar RSUExampleScenario.node[32].nic.mac1609_4 	ReceivedBroadcasts 	20
scalar RSUExampleScenario.node[32].nic.mac1609_4 	SentPackets 	1
scalar RSUExampleScenario.node[32].nic.mac1609_4 	SNIRLostPackets 	7
scalar RSUExampleScenario.node[32].nic.mac1609_4 	RXTXLostPackets 	0
scalar RSUExampleScenario.node[32].nic.mac1609_4 	TotalLostPackets 	7
scalar RSUExampleScenario.node[32].nic.mac1609_4 	DroppedPacketsInMac 	0
scalar RSUExampleScenario.node[32].nic.mac1609_4 	TooLittleTime 	0
scalar RSUExampleScenario.node[32].nic.mac1609_4 	TimesIntoBackoff 	2
scalar RSUExampleScenario.node[32].nic.mac1609_4 	SlotsBackoff 	6
scalar RSUExampleScenario.node[32].nic.mac1609_4 	NumInternalContention 	0
scalar RSUExampleScenario.node[32].nic.mac1609_4 	totalBusyTime 	0.002305
scalar RSUExampleScenario.node[32].veinsmobility 	startTime 	58
scalar RSUExampleScenario.node[32].veinsmobility 	totalTime 	631
scalar RSUExampleScenario.node[32].veinsmobility 	stopTime 	690
scalar RSUExampleScenario.node[32].veinsmobility 	minSpeed 	0
scalar RSUExampleScenario.node[32].veinsmobility 	maxSpeed 	16.656179384282
scalar RSUExampleScenario.node[32].veinsmobility 	totalDistance 	3256.0715050787
scalar RSUExampleScenario.node[32].veinsmobility 	totalCO2Emission 	1178.3087974135
scalar RSUExampleScenario.node[35].nic.phy80211p 	busyTime 	3.8216560509554e-06
scalar RSUExampleScenario.node[35].nic.mac1609_4 	ReceivedUnicastPackets 	0
scalar RSUExampleScenario.node[35].nic.mac1609_4 	ReceivedBroadcasts 	20
scalar RSUExampleScenario.node[35].nic.mac1609_4 	SentPackets 	1
scalar RSUExampleScenario.node[35].nic.mac1609_4 	SNIRLostPackets 	5
scalar RSUExampleScenario.node[35].nic.mac1609_4 	RXTXLostPackets 	1
scalar RSUExampleScenario.node[35].nic.mac1609_4 	TotalLostPackets 	6
scalar RSUExampleScenario.node[35].nic.mac1609_4 	DroppedPacketsInMac 	0
scalar RSUExampleScenario.node[35].nic.mac1609_4 	TooLittleTime 	0
scalar RSUExampleScenario.node[35].nic.mac1609_4 	TimesIntoBackoff 	2
scalar RSUExampleScenario.node[35].nic.mac1609_4 	SlotsBackoff 	13
scalar RSUExampleScenario.node[35].nic.mac1609_4 	NumInternalContention 	0
scalar RSUExampleScenario.node[35].nic.mac1609_4 	totalBusyTime 	0.002209055494
scalar RSUExampleScenario.node[35].veinsmobility 	startTime 	64
scalar RSUExampleScenario.node[35].veinsmobility 	totalTime 	627
scalar RSUExampleScenario.node[35].veinsmobility 	stopTime 	692
scalar RSUExampleScenario.node[35].veinsmobility 	minSpeed 	0
scalar RSUExampleScenario.node[35].veinsmobility 	maxSpeed 	16.667298190519
scalar RSUExampleScenario.node[35].veinsmobility 	totalDistance 	3247.4836855668
scalar RSUExampleScenario.node[35].veinsmobility 	totalCO2Emission 	1158.2343103852
scalar RSUExampleScenario.node[37].nic.phy80211p 	busyTime 	3.9808612440191e-06
scalar RSUExampleScenario.node[37].nic.mac1609_4 	ReceivedUnicastPackets 	0
scalar RSUExampleScenario.node[37].nic.mac1609_4 	ReceivedBroadcasts 	19
scalar RSUExampleScenario.node[37].nic.mac1609_4 	SentPackets 	1
scalar RSUExampleScenario.node[37].nic.mac1609_4 	SNIRLostPackets 	7
scalar RSUExampleScenario.node[37].nic.mac1609_4 	RXTXLostPackets 	0
scalar RSUExampleScenario.node[37].nic.mac1609_4 	TotalLostPackets 	7
scalar RSUExampleScenario.node[37].nic.mac1609_4 	DroppedPacketsInMac 	0
scalar RSUExampleScenario.node[37].nic.mac1609_4 	TooLittleTime 	0
scalar RSUExampleScenario.node[37].nic.mac1609_4 	TimesIntoBackoff 	1
scalar RSUExampleScenario.node[37].nic.mac1609_4 	SlotsBackoff 	0
scalar RSUExampleScenario.node[37].nic.mac1609_4 	NumInternalContention 	0
scalar RSUExampleScenario.node[37].nic.mac1609_4 	totalBusyTime 	0.002209004828
scalar RSUExampleScenario.node[37].veinsmobility 	startTime 	68
scalar RSUExampleScenario.node[37].veinsmobility 	totalTime 	626
scalar RSUExampleScenario.node[37].veinsmobility 	stopTime 	695
scalar RSUExampleScenario.node[37].veinsmobility 	minSpeed 	0
scalar RSUExampleScenario.node[37].veinsmobility 	maxSpeed 	16.668514070148
scalar RSUExampleScenario.node[37].veinsmobility 	totalDistance 	3254.6875270129
scalar RSUExampleScenario.node[37].veinsmobility 	totalCO2Emission 	1163.5455620326
scalar RSUExampleScenario.node[67].nic.phy80211p 	busyTime 	7.04114490161e-06
scalar RSUExampleScenario.node[67].nic.mac1609_4 	ReceivedUnicastPackets 	0
scalar RSUExampleScenario.node[67].nic.mac1609_4 	ReceivedBroadcasts 	15
scalar RSUExampleScenario.node[67].nic.mac1609_4 	SentPackets 	1
scalar RSUExampleScenario.node[67].nic.mac1609_4 	SNIRLostPackets 	26
scalar RSUExampleScenario.node[67].nic.mac1609_4 	RXTXLostPackets 	0
scalar RSUExampleScenario.node[67].nic.mac1609_4 	TotalLostPackets 	26
scalar RSUExampleScenario.node[67].nic.mac1609_4 	DroppedPacketsInMac 	0
scalar RSUExampleScenario.node[67].nic.mac1609_4 	TooLittleTime 	0
scalar RSUExampleScenario.node[67].nic.mac1609_4 	TimesIntoBackoff 	2
scalar RSUExampleScenario.node[67].nic.mac1609_4 	SlotsBackoff 	11
scalar RSUExampleScenario.node[67].nic.mac1609_4 	NumInternalContention 	0
scalar RSUExampleScenario.node[67].nic.mac1609_4 	totalBusyTime 	0.002497
scalar RSUExampleScenario.node[67].veinsmobility 	startTime 	138
scalar RSUExampleScenario.node[67].veinsmobility 	totalTime 	558
scalar RSUExampleScenario.node[67].veinsmobility 	stopTime 	697
scalar RSUExampleScenario.node[67].veinsmobility 	minSpeed 	0
scalar RSUExampleScenario.node[67].veinsmobility 	maxSpeed 	26.951798738496
scalar RSUExampleScenario.node[67].veinsmobility 	totalDistance 	3399.918539544
scalar RSUExampleScenario.node[67].veinsmobility 	totalCO2Emission 	1278.8901333829
scalar RSUExampleScenario.node[66].nic.phy80211p 	busyTime 	6.9663716814159e-06
scalar RSUExampleScenario.node[66].nic.mac1609_4 	ReceivedUnicastPackets 	0
scalar RSUExampleScenario.node[66].nic.mac1609_4 	ReceivedBroadcasts 	15
scalar RSUExampleScenario.node[66].nic.mac1609_4 	SentPackets 	1
scalar RSUExampleScenario.node[66].nic.mac1609_4 	SNIRLostPackets 	26
scalar RSUExampleScenario.node[66].nic.mac1609_4 	RXTXLostPackets 	0
scalar RSUExampleScenario.node[66].nic.mac1609_4 	TotalLostPackets 	26
scalar RSUExampleScenario.node[66].nic.mac1609_4 	DroppedPacketsInMac 	0
scalar RSUExampleScenario.node[66].nic.mac1609_4 	TooLittleTime 	0
scalar RSUExampleScenario.node[66].nic.mac1609_4 	TimesIntoBackoff 	1
scalar RSUExampleScenario.node[66].nic.mac1609_4 	SlotsBackoff 	3
scalar RSUExampleScenario.node[66].nic.mac1609_4 	NumInternalContention 	0
scalar RSUExampleScenario.node[66].nic.mac1609_4 	totalBusyTime 	0.002497
scalar RSUExampleScenario.node[66].veinsmobility 	startTime 	135
scalar RSUExampleScenario.node[66].veinsmobility 	totalTime 	564
scalar RSUExampleScenario.node[66].veinsmobility 	stopTime 	700
scalar RSUExampleScenario.node[66].veinsmobility 	minSpeed 	0
scalar RSUExampleScenario.node[66].veinsmobility 	maxSpeed 	27.729918998722
scalar RSUExampleScenario.node[66].veinsmobility 	totalDistance 	3403.317646831
scalar RSUExampleScenario.node[66].veinsmobility 	totalCO2Emission 	1305.3261416203
scalar RSUExampleScenario.node[36].nic.phy80211p 	busyTime 	3.7735849056604e-06
scalar RSUExampleScenario.node[36].nic.mac1609_4 	ReceivedUnicastPackets 	0
scalar RSUExampleScenario.node[36].nic.mac1609_4 	ReceivedBroadcasts 	20
scalar RSUExampleScenario.node[36].nic.mac1609_4 	SentPackets 	1
scalar RSUExampleScenario.node[36].nic.mac1609_4 	SNIRLostPackets 	5
scalar RSUExampleScenario.node[36].nic.mac1609_4 	RXTXLostPackets 	1
scalar RSUExampleScenario.node[36].nic.mac1609_4 	TotalLostPackets 	6
scalar RSUExampleScenario.node[36].nic.mac1609_4 	DroppedPacketsInMac 	0
scalar RSUExampleScenario.node[36].nic.mac1609_4 	TooLittleTime 	0
scalar RSUExampleScenario.node[36].nic.mac1609_4 	TimesIntoBackoff 	2
scalar RSUExampleScenario.node[36].nic.mac1609_4 	SlotsBackoff 	0
scalar RSUExampleScenario.node[36].nic.mac1609_4 	NumInternalContention 	0
scalar RSUExampleScenario.node[36].nic.mac1609_4 	totalBusyTime 	0.002209004828
scalar RSUExampleScenario.node[36].veinsmobility 	startTime 	66
scalar RSUExampleScenario.node[36].veinsmobility 	totalTime 	635
scalar RSUExampleScenario.node[36].veinsmobility 	stopTime 	702
scalar RSUExampleScenario.node[36].veinsmobility 	minSpeed 	0
scalar RSUExampleScenario.node[36].veinsmobility 	maxSpeed 	16.66903800766
scalar RSUExampleScenario.node[36].veinsmobility 	totalDistance 	3246.663366809
scalar RSUExampleScenario.node[36].veinsmobility 	totalCO2Emission 	1195.6835444391
scalar RSUExampleScenario.node[64].nic.phy80211p 	busyTime 	5.5191637630662e-06
scalar RSUExampleScenario.node[64].nic.mac1609_4 	ReceivedUnicastPackets 	0
scalar RSUExampleScenario.node[64].nic.mac1609_4 	ReceivedBroadcasts 	16
scalar RSUExampleScenario.node[64].nic.mac1609_4 	SentPackets 	1
scalar RSUExampleScenario.node[64].nic.mac1609_4 	SNIRLostPackets 	17
scalar RSUExampleScenario.node[64].nic.mac1609_4 	RXTXLostPackets 	0
scalar RSUExampleScenario.node[64].nic.mac1609_4 	TotalLostPackets 	17
scalar RSUExampleScenario.node[64].nic.mac1609_4 	DroppedPacketsInMac 	0
scalar RSUExampleScenario.node[64].nic.mac1609_4 	TooLittleTime 	0
scalar RSUExampleScenario.node[64].nic.mac1609_4 	TimesIntoBackoff 	1
scalar RSUExampleScenario.node[64].nic.mac1609_4 	SlotsBackoff 	1
scalar RSUExampleScenario.node[64].nic.mac1609_4 	NumInternalContention 	0
scalar RSUExampleScenario.node[64].nic.mac1609_4 	totalBusyTime 	0.002305
scalar RSUExampleScenario.node[64].veinsmobility 	startTime 	131
scalar RSUExampleScenario.node[64].veinsmobility 	totalTime 	573
scalar RSUExampleScenario.node[64].veinsmobility 	stopTime 	705
scalar RSUExampleScenario.node[64].veinsmobility 	minSpeed 	0
scalar RSUExampleScenario.node[64].veinsmobility 	maxSpeed 	27.196591739312
scalar RSUExampleScenario.node[64].veinsmobility 	totalDistance 	3405.9614429568
scalar RSUExampleScenario.node[64].veinsmobility 	totalCO2Emission 	1338.5551747733
scalar RSUExampleScenario.node[43].nic.phy80211p 	busyTime 	4.2870813397129e-06
scalar RSUExampleScenario.node[43].nic.mac1609_4 	ReceivedUnicastPackets 	0
scalar RSUExampleScenario.node[43].nic.mac1609_4 	ReceivedBroadcasts 	21
scalar RSUExampleScenario.node[43].nic.mac1609_4 	SentPackets 	1
scalar RSUExampleScenario.node[43].nic.mac1609_4 	SNIRLostPackets 	7
scalar RSUExampleScenario.node[43].nic.mac1609_4 	RXTXLostPackets 	0
scalar RSUExampleScenario.node[43].nic.mac1609_4 	TotalLostPackets 	7
scalar RSUExampleScenario.node[43].nic.mac1609_4 	DroppedPacketsInMac 	0
scalar RSUExampleScenario.node[43].nic.mac1609_4 	TooLittleTime 	0
scalar RSUExampleScenario.node[43].nic.mac1609_4 	TimesIntoBackoff 	2
scalar RSUExampleScenario.node[43].nic.mac1609_4 	SlotsBackoff 	11
scalar RSUExampleScenario.node[43].nic.mac1609_4 	NumInternalContention 	0
scalar RSUExampleScenario.node[43].nic.mac1609_4 	totalBusyTime 	0.002401093185
scalar RSUExampleScenario.node[43].veinsmobility 	startTime 	80
scalar RSUExampleScenario.node[43].veinsmobility 	totalTime 	626
scalar RSUExampleScenario.node[43].veinsmobility 	stopTime 	707
scalar RSUExampleScenario.node[43].veinsmobility 	minSpeed 	0
scalar RSUExampleScenario.node[43].veinsmobility 	maxSpeed 	16.65607956701
scalar RSUExampleScenario.node[43].veinsmobility 	totalDistance 	3254.7357773353
scalar RSUExampleScenario.node[43].veinsmobility 	totalCO2Emission 	1212.9245645054
scalar RSUExampleScenario.node[41].nic.phy80211p 	busyTime 	4.0947867298578e-06
scalar RSUExampleScenario.node[41].nic.mac1609_4 	ReceivedUnicastPackets 	0
scalar RSUExampleScenario.node[41].nic.mac1609_4 	ReceivedBroadcasts 	20
scalar RSUExampleScenario.node[41].nic.mac1609_4 	SentPackets 	1
scalar RSUExampleScenario.node[41].nic.mac1609_4 	SNIRLostPackets 	7
scalar RSUExampleScenario.node[41].nic.mac1609_4 	RXTXLostPackets 	0
scalar RSUExampleScenario.node[41].nic.mac1609_4 	TotalLostPackets 	7
scalar RSUExampleScenario.node[41].nic.mac1609_4 	DroppedPacketsInMac 	0
scalar RSUExampleScenario.node[41].nic.mac1609_4 	TooLittleTime 	0
scalar RSUExampleScenario.node[41].nic.mac1609_4 	TimesIntoBackoff 	2
scalar RSUExampleScenario.node[41].nic.mac1609_4 	SlotsBackoff 	8
scalar RSUExampleScenario.node[41].nic.mac1609_4 	NumInternalContention 	0
scalar RSUExampleScenario.node[41].nic.mac1609_4 	totalBusyTime 	0.002305
scalar RSUExampleScenario.node[41].veinsmobility 	startTime 	76
scalar RSUExampleScenario.node[41].veinsmobility 	totalTime 	632
scalar RSUExampleScenario.node[41].veinsmobility 	stopTime 	709
scalar RSUExampleScenario.node[41].veinsmobility 	minSpeed 	0
scalar RSUExampleScenario.node[41].veinsmobility 	maxSpeed 	16.669203685541
scalar RSUExampleScenario.node[41].veinsmobility 	totalDistance 	3250.6393166049
scalar RSUExampleScenario.node[41].veinsmobility 	totalCO2Emission 	1149.6281262224
scalar RSUExampleScenario.node[44].nic.phy80211p 	busyTime 	4.391167192429e-06
scalar RSUExampleScenario.node[44].nic.mac1609_4 	ReceivedUnicastPackets 	0
scalar RSUExampleScenario.node[44].nic.mac1609_4 	ReceivedBroadcasts 	22
scalar RSUExampleScenario.node[44].nic.mac1609_4 	SentPackets 	1
scalar RSUExampleScenario.node[44].nic.mac1609_4 	SNIRLostPackets 	7
scalar RSUExampleScenario.node[44].nic.mac1609_4 	RXTXLostPackets 	0
scalar RSUExampleScenario.node[44].nic.mac1609_4 	TotalLostPackets 	7
scalar RSUExampleScenario.node[44].nic.mac1609_4 	DroppedPacketsInMac 	0
scalar RSUExampleScenario.node[44].nic.mac1609_4 	TooLittleTime 	0
scalar RSUExampleScenario.node[44].nic.mac1609_4 	TimesIntoBackoff 	2
scalar RSUExampleScenario.node[44].nic.mac1609_4 	SlotsBackoff 	14
scalar RSUExampleScenario.node[44].nic.mac1609_4 	NumInternalContention 	0
scalar RSUExampleScenario.node[44].nic.mac1609_4 	totalBusyTime 	0.002497004266
scalar RSUExampleScenario.node[44].veinsmobility 	startTime 	84
scalar RSUExampleScenario.node[44].veinsmobility 	totalTime 	633
scalar RSUExampleScenario.node[44].veinsmobility 	stopTime 	718
scalar RSUExampleScenario.node[44].veinsmobility 	minSpeed 	0
scalar RSUExampleScenario.node[44].veinsmobility 	maxSpeed 	16.667426672382
scalar RSUExampleScenario.node[44].veinsmobility 	totalDistance 	3251.45113581
scalar RSUExampleScenario.node[44].veinsmobility 	totalCO2Emission 	1039.5490271535
scalar RSUExampleScenario.node[73].nic.phy80211p 	busyTime 	6.5799648506151e-06
scalar RSUExampleScenario.node[73].nic.mac1609_4 	ReceivedUnicastPackets 	0
scalar RSUExampleScenario.node[73].nic.mac1609_4 	ReceivedBroadcasts 	30
scalar RSUExampleScenario.node[73].nic.mac1609_4 	SentPackets 	1
scalar RSUExampleScenario.node[73].nic.mac1609_4 	SNIRLostPackets 	9
scalar RSUExampleScenario.node[73].nic.mac1609_4 	RXTXLostPackets 	1
scalar RSUExampleScenario.node[73].nic.mac1609_4 	TotalLostPackets 	10
scalar RSUExampleScenario.node[73].nic.mac1609_4 	DroppedPacketsInMac 	0
scalar RSUExampleScenario.node[73].nic.mac1609_4 	TooLittleTime 	0
scalar RSUExampleScenario.node[73].nic.mac1609_4 	TimesIntoBackoff 	2
scalar RSUExampleScenario.node[73].nic.mac1609_4 	SlotsBackoff 	13
scalar RSUExampleScenario.node[73].nic.mac1609_4 	NumInternalContention 	0
scalar RSUExampleScenario.node[73].nic.mac1609_4 	totalBusyTime 	0.003303365321
scalar RSUExampleScenario.node[73].veinsmobility 	startTime 	151
scalar RSUExampleScenario.node[73].veinsmobility 	totalTime 	568
scalar RSUExampleScenario.node[73].veinsmobility 	stopTime 	720
scalar RSUExampleScenario.node[73].veinsmobility 	minSpeed 	0
scalar RSUExampleScenario.node[73].veinsmobility 	maxSpeed 	27.764190024156
scalar RSUExampleScenario.node[73].veinsmobility 	totalDistance 	3401.5497018723
scalar RSUExampleScenario.node[73].veinsmobility 	totalCO2Emission 	1304.9322014956
scalar RSUExampleScenario.node[79].nic.phy80211p 	busyTime 	7.7558348294435e-06
scalar RSUExampleScenario.node[79].nic.mac1609_4 	ReceivedUnicastPackets 	0
scalar RSUExampleScenario.node[79].nic.mac1609_4 	ReceivedBroadcasts 	36
scalar RSUExampleScenario.node[79].nic.mac1609_4 	SentPackets 	1
scalar RSUExampleScenario.node[79].nic.mac1609_4 	SNIRLostPackets 	9
scalar RSUExampleScenario.node[79].nic.mac1609_4 	RXTXLostPackets 	0
scalar RSUExampleScenario.node[79].nic.mac1609_4 	TotalLostPackets 	9
scalar RSUExampleScenario.node[79].nic.mac1609_4 	DroppedPacketsInMac 	0
scalar RSUExampleScenario.node[79].nic.mac1609_4 	TooLittleTime 	0
scalar RSUExampleScenario.node[79].nic.mac1609_4 	TimesIntoBackoff 	1
scalar RSUExampleScenario.node[79].nic.mac1609_4 	SlotsBackoff 	2
scalar RSUExampleScenario.node[79].nic.mac1609_4 	NumInternalContention 	0
scalar RSUExampleScenario.node[79].nic.mac1609_4 	totalBusyTime 	0.003937000013
scalar RSUExampleScenario.node[79].veinsmobility 	startTime 	165
scalar RSUExampleScenario.node[79].veinsmobility 	totalTime 	556
scalar RSUExampleScenario.node[79].veinsmobility 	stopTime 	722
scalar RSUExampleScenario.node[79].veinsmobility 	minSpeed 	0
scalar RSUExampleScenario.node[79].veinsmobility 	maxSpeed 	27.755824209051
scalar RSUExampleScenario.node[79].veinsmobility 	totalDistance 	3395.8074633808
scalar RSUExampleScenario.node[79].veinsmobility 	totalCO2Emission 	1263.1172492609
scalar RSUExampleScenario.node[45].nic.phy80211p 	busyTime 	5.2418096723869e-06
scalar RSUExampleScenario.node[45].nic.mac1609_4 	ReceivedUnicastPackets 	0
[...]
scalar RSUExampleScenario.node[383].veinsmobility 	maxSpeed 	16.666180965942
scalar RSUExampleScenario.node[383].veinsmobility 	totalDistance 	3252.5426126829
scalar RSUExampleScenario.node[383].veinsmobility 	totalCO2Emission 	1020.4851091351
scalar RSUExampleScenario.node[374].nic.phy80211p 	busyTime 	2.3491027732463e-06
scalar RSUExampleScenario.node[374].nic.mac1609_4 	ReceivedUnicastPackets 	0
scalar RSUExampleScenario.node[374].nic.mac1609_4 	ReceivedBroadcasts 	11
scalar RSUExampleScenario.node[374].nic.mac1609_4 	SentPackets 	1
scalar RSUExampleScenario.node[374].nic.mac1609_4 	SNIRLostPackets 	4
scalar RSUExampleScenario.node[374].nic.mac1609_4 	RXTXLostPackets 	0
scalar RSUExampleScenario.node[374].nic.mac1609_4 	TotalLostPackets 	4
scalar RSUExampleScenario.node[374].nic.mac1609_4 	DroppedPacketsInMac 	0
scalar RSUExampleScenario.node[374].nic.mac1609_4 	TooLittleTime 	0
scalar RSUExampleScenario.node[374].nic.mac1609_4 	TimesIntoBackoff 	1
scalar RSUExampleScenario.node[374].nic.mac1609_4 	SlotsBackoff 	1
scalar RSUExampleScenario.node[374].nic.mac1609_4 	NumInternalContention 	0
scalar RSUExampleScenario.node[374].nic.mac1609_4 	totalBusyTime 	0.001345
scalar RSUExampleScenario.node[374].veinsmobility 	startTime 	1815
scalar RSUExampleScenario.node[374].veinsmobility 	totalTime 	612
scalar RSUExampleScenario.node[374].veinsmobility 	stopTime 	2428
scalar RSUExampleScenario.node[374].veinsmobility 	minSpeed 	0
scalar RSUExampleScenario.node[374].veinsmobility 	maxSpeed 	27.724865070018
scalar RSUExampleScenario.node[374].veinsmobility 	totalDistance 	3392.1415271433
scalar RSUExampleScenario.node[374].veinsmobility 	totalCO2Emission 	1204.2011117172
scalar RSUExampleScenario.node[382].nic.phy80211p 	busyTime 	2.228855721393e-06
scalar RSUExampleScenario.node[382].nic.mac1609_4 	ReceivedUnicastPackets 	0
scalar RSUExampleScenario.node[382].nic.mac1609_4 	ReceivedBroadcasts 	12
scalar RSUExampleScenario.node[382].nic.mac1609_4 	SentPackets 	1
scalar RSUExampleScenario.node[382].nic.mac1609_4 	SNIRLostPackets 	2
scalar RSUExampleScenario.node[382].nic.mac1609_4 	RXTXLostPackets 	1
scalar RSUExampleScenario.node[382].nic.mac1609_4 	TotalLostPackets 	3
scalar RSUExampleScenario.node[382].nic.mac1609_4 	DroppedPacketsInMac 	0
scalar RSUExampleScenario.node[382].nic.mac1609_4 	TooLittleTime 	0
scalar RSUExampleScenario.node[382].nic.mac1609_4 	TimesIntoBackoff 	1
scalar RSUExampleScenario.node[382].nic.mac1609_4 	SlotsBackoff 	2
scalar RSUExampleScenario.node[382].nic.mac1609_4 	NumInternalContention 	0
scalar RSUExampleScenario.node[382].nic.mac1609_4 	totalBusyTime 	0.001345183574
scalar RSUExampleScenario.node[382].veinsmobility 	startTime 	1831
scalar RSUExampleScenario.node[382].veinsmobility 	totalTime 	602
scalar RSUExampleScenario.node[382].veinsmobility 	stopTime 	2434
scalar RSUExampleScenario.node[382].veinsmobility 	minSpeed 	0
scalar RSUExampleScenario.node[382].veinsmobility 	maxSpeed 	16.669724116485
scalar RSUExampleScenario.node[382].veinsmobility 	totalDistance 	3255.3644820076
scalar RSUExampleScenario.node[382].veinsmobility 	totalCO2Emission 	1039.6387163372
scalar RSUExampleScenario.node[376].nic.phy80211p 	busyTime 	2.3263327948304e-06
scalar RSUExampleScenario.node[376].nic.mac1609_4 	ReceivedUnicastPackets 	0
scalar RSUExampleScenario.node[376].nic.mac1609_4 	ReceivedBroadcasts 	11
scalar RSUExampleScenario.node[376].nic.mac1609_4 	SentPackets 	1
scalar RSUExampleScenario.node[376].nic.mac1609_4 	SNIRLostPackets 	4
scalar RSUExampleScenario.node[376].nic.mac1609_4 	RXTXLostPackets 	0
scalar RSUExampleScenario.node[376].nic.mac1609_4 	TotalLostPackets 	4
scalar RSUExampleScenario.node[376].nic.mac1609_4 	DroppedPacketsInMac 	0
scalar RSUExampleScenario.node[376].nic.mac1609_4 	TooLittleTime 	0
scalar RSUExampleScenario.node[376].nic.mac1609_4 	TimesIntoBackoff 	2
scalar RSUExampleScenario.node[376].nic.mac1609_4 	SlotsBackoff 	2
scalar RSUExampleScenario.node[376].nic.mac1609_4 	NumInternalContention 	0
scalar RSUExampleScenario.node[376].nic.mac1609_4 	totalBusyTime 	0.001345015939
scalar RSUExampleScenario.node[376].veinsmobility 	startTime 	1819
scalar RSUExampleScenario.node[376].veinsmobility 	totalTime 	618
scalar RSUExampleScenario.node[376].veinsmobility 	stopTime 	2438
scalar RSUExampleScenario.node[376].veinsmobility 	minSpeed 	0
scalar RSUExampleScenario.node[376].veinsmobility 	maxSpeed 	27.742676746167
scalar RSUExampleScenario.node[376].veinsmobility 	totalDistance 	3396.5463256597
scalar RSUExampleScenario.node[376].veinsmobility 	totalCO2Emission 	1178.1201313326
scalar RSUExampleScenario.node[375].nic.phy80211p 	busyTime 	2.3003194888179e-06
scalar RSUExampleScenario.node[375].nic.mac1609_4 	ReceivedUnicastPackets 	0
scalar RSUExampleScenario.node[375].nic.mac1609_4 	ReceivedBroadcasts 	11
scalar RSUExampleScenario.node[375].nic.mac1609_4 	SentPackets 	1
scalar RSUExampleScenario.node[375].nic.mac1609_4 	SNIRLostPackets 	4
scalar RSUExampleScenario.node[375].nic.mac1609_4 	RXTXLostPackets 	0
scalar RSUExampleScenario.node[375].nic.mac1609_4 	TotalLostPackets 	4
scalar RSUExampleScenario.node[375].nic.mac1609_4 	DroppedPacketsInMac 	0
scalar RSUExampleScenario.node[375].nic.mac1609_4 	TooLittleTime 	0
scalar RSUExampleScenario.node[375].nic.mac1609_4 	TimesIntoBackoff 	1
scalar RSUExampleScenario.node[375].nic.mac1609_4 	SlotsBackoff 	2
scalar RSUExampleScenario.node[375].nic.mac1609_4 	NumInternalContention 	0
scalar RSUExampleScenario.node[375].nic.mac1609_4 	totalBusyTime 	0.001345
scalar RSUExampleScenario.node[375].veinsmobility 	startTime 	1817
scalar RSUExampleScenario.node[375].veinsmobility 	totalTime 	625
scalar RSUExampleScenario.node[375].veinsmobility 	stopTime 	2443
scalar RSUExampleScenario.node[375].veinsmobility 	minSpeed 	0
scalar RSUExampleScenario.node[375].veinsmobility 	maxSpeed 	27.776198604211
scalar RSUExampleScenario.node[375].veinsmobility 	totalDistance 	3402.6457379499
scalar RSUExampleScenario.node[375].veinsmobility 	totalCO2Emission 	1241.215374058
scalar RSUExampleScenario.node[385].nic.phy80211p 	busyTime 	2.3188405797101e-06
scalar RSUExampleScenario.node[385].nic.mac1609_4 	ReceivedUnicastPackets 	0
scalar RSUExampleScenario.node[385].nic.mac1609_4 	ReceivedBroadcasts 	11
scalar RSUExampleScenario.node[385].nic.mac1609_4 	SentPackets 	1
scalar RSUExampleScenario.node[385].nic.mac1609_4 	SNIRLostPackets 	4
scalar RSUExampleScenario.node[385].nic.mac1609_4 	RXTXLostPackets 	0
scalar RSUExampleScenario.node[385].nic.mac1609_4 	TotalLostPackets 	4
scalar RSUExampleScenario.node[385].nic.mac1609_4 	DroppedPacketsInMac 	0
scalar RSUExampleScenario.node[385].nic.mac1609_4 	TooLittleTime 	0
scalar RSUExampleScenario.node[385].nic.mac1609_4 	TimesIntoBackoff 	1
scalar RSUExampleScenario.node[385].nic.mac1609_4 	SlotsBackoff 	7
scalar RSUExampleScenario.node[385].nic.mac1609_4 	NumInternalContention 	0
scalar RSUExampleScenario.node[385].nic.mac1609_4 	totalBusyTime 	0.001345
scalar RSUExampleScenario.node[385].veinsmobility 	startTime 	1837
scalar RSUExampleScenario.node[385].veinsmobility 	totalTime 	620
scalar RSUExampleScenario.node[385].veinsmobility 	stopTime 	2458
scalar RSUExampleScenario.node[385].veinsmobility 	minSpeed 	0
scalar RSUExampleScenario.node[385].veinsmobility 	maxSpeed 	16.666460021189
scalar RSUExampleScenario.node[385].veinsmobility 	totalDistance 	3257.1268880695
scalar RSUExampleScenario.node[385].veinsmobility 	totalCO2Emission 	1076.2997781432
scalar RSUExampleScenario.node[377].nic.phy80211p 	busyTime 	2.2325581395349e-06
scalar RSUExampleScenario.node[377].nic.mac1609_4 	ReceivedUnicastPackets 	0
scalar RSUExampleScenario.node[377].nic.mac1609_4 	ReceivedBroadcasts 	11
scalar RSUExampleScenario.node[377].nic.mac1609_4 	SentPackets 	1
scalar RSUExampleScenario.node[377].nic.mac1609_4 	SNIRLostPackets 	4
scalar RSUExampleScenario.node[377].nic.mac1609_4 	RXTXLostPackets 	0
scalar RSUExampleScenario.node[377].nic.mac1609_4 	TotalLostPackets 	4
scalar RSUExampleScenario.node[377].nic.mac1609_4 	DroppedPacketsInMac 	0
scalar RSUExampleScenario.node[377].nic.mac1609_4 	TooLittleTime 	0
scalar RSUExampleScenario.node[377].nic.mac1609_4 	TimesIntoBackoff 	1
scalar RSUExampleScenario.node[377].nic.mac1609_4 	SlotsBackoff 	6
scalar RSUExampleScenario.node[377].nic.mac1609_4 	NumInternalContention 	0
scalar RSUExampleScenario.node[377].nic.mac1609_4 	totalBusyTime 	0.001345008639
scalar RSUExampleScenario.node[377].veinsmobility 	startTime 	1821
scalar RSUExampleScenario.node[377].veinsmobility 	totalTime 	644
scalar RSUExampleScenario.node[377].veinsmobility 	stopTime 	2466
scalar RSUExampleScenario.node[377].veinsmobility 	minSpeed 	0
scalar RSUExampleScenario.node[377].veinsmobility 	maxSpeed 	27.776448498376
scalar RSUExampleScenario.node[377].veinsmobility 	totalDistance 	3392.3426608676
scalar RSUExampleScenario.node[377].veinsmobility 	totalCO2Emission 	1150.369215134
scalar RSUExampleScenario.node[378].nic.phy80211p 	busyTime 	2.2187981510015e-06
scalar RSUExampleScenario.node[378].nic.mac1609_4 	ReceivedUnicastPackets 	0
scalar RSUExampleScenario.node[378].nic.mac1609_4 	ReceivedBroadcasts 	11
scalar RSUExampleScenario.node[378].nic.mac1609_4 	SentPackets 	1
scalar RSUExampleScenario.node[378].nic.mac1609_4 	SNIRLostPackets 	4
scalar RSUExampleScenario.node[378].nic.mac1609_4 	RXTXLostPackets 	0
scalar RSUExampleScenario.node[378].nic.mac1609_4 	TotalLostPackets 	4
scalar RSUExampleScenario.node[378].nic.mac1609_4 	DroppedPacketsInMac 	0
scalar RSUExampleScenario.node[378].nic.mac1609_4 	TooLittleTime 	0
scalar RSUExampleScenario.node[378].nic.mac1609_4 	TimesIntoBackoff 	2
scalar RSUExampleScenario.node[378].nic.mac1609_4 	SlotsBackoff 	8
scalar RSUExampleScenario.node[378].nic.mac1609_4 	NumInternalContention 	0
scalar RSUExampleScenario.node[378].nic.mac1609_4 	totalBusyTime 	0.001345
scalar RSUExampleScenario.node[378].veinsmobility 	startTime 	1823
scalar RSUExampleScenario.node[378].veinsmobility 	totalTime 	648
scalar RSUExampleScenario.node[378].veinsmobility 	stopTime 	2472
scalar RSUExampleScenario.node[378].veinsmobility 	minSpeed 	0
scalar RSUExampleScenario.node[378].veinsmobility 	maxSpeed 	27.778716265104
scalar RSUExampleScenario.node[378].veinsmobility 	totalDistance 	3398.5391780391
scalar RSUExampleScenario.node[378].veinsmobility 	totalCO2Emission 	1148.1554337436
scalar RSUExampleScenario.node[386].nic.phy80211p 	busyTime 	2.2360248447205e-06
scalar RSUExampleScenario.node[386].nic.mac1609_4 	ReceivedUnicastPackets 	0
scalar RSUExampleScenario.node[386].nic.mac1609_4 	ReceivedBroadcasts 	11
scalar RSUExampleScenario.node[386].nic.mac1609_4 	SentPackets 	1
scalar RSUExampleScenario.node[386].nic.mac1609_4 	SNIRLostPackets 	4
scalar RSUExampleScenario.node[386].nic.mac1609_4 	RXTXLostPackets 	0
scalar RSUExampleScenario.node[386].nic.mac1609_4 	TotalLostPackets 	4
scalar RSUExampleScenario.node[386].nic.mac1609_4 	DroppedPacketsInMac 	0
scalar RSUExampleScenario.node[386].nic.mac1609_4 	TooLittleTime 	0
scalar RSUExampleScenario.node[386].nic.mac1609_4 	TimesIntoBackoff 	1
scalar RSUExampleScenario.node[386].nic.mac1609_4 	SlotsBackoff 	7
scalar RSUExampleScenario.node[386].nic.mac1609_4 	NumInternalContention 	0
scalar RSUExampleScenario.node[386].nic.mac1609_4 	totalBusyTime 	0.001345
scalar RSUExampleScenario.node[386].veinsmobility 	startTime 	1839
scalar RSUExampleScenario.node[386].veinsmobility 	totalTime 	643
scalar RSUExampleScenario.node[386].veinsmobility 	stopTime 	2483
scalar RSUExampleScenario.node[386].veinsmobility 	minSpeed 	0
scalar RSUExampleScenario.node[386].veinsmobility 	maxSpeed 	16.669033766598
scalar RSUExampleScenario.node[386].veinsmobility 	totalDistance 	3257.4133103677
scalar RSUExampleScenario.node[386].veinsmobility 	totalCO2Emission 	1100.0342233743
scalar RSUExampleScenario.node[387].nic.phy80211p 	busyTime 	2.225656877898e-06
scalar RSUExampleScenario.node[387].nic.mac1609_4 	ReceivedUnicastPackets 	0
scalar RSUExampleScenario.node[387].nic.mac1609_4 	ReceivedBroadcasts 	11
scalar RSUExampleScenario.node[387].nic.mac1609_4 	SentPackets 	1
scalar RSUExampleScenario.node[387].nic.mac1609_4 	SNIRLostPackets 	4
scalar RSUExampleScenario.node[387].nic.mac1609_4 	RXTXLostPackets 	0
scalar RSUExampleScenario.node[387].nic.mac1609_4 	TotalLostPackets 	4
scalar RSUExampleScenario.node[387].nic.mac1609_4 	DroppedPacketsInMac 	0
scalar RSUExampleScenario.node[387].nic.mac1609_4 	TooLittleTime 	0
scalar RSUExampleScenario.node[387].nic.mac1609_4 	TimesIntoBackoff 	1
scalar RSUExampleScenario.node[387].nic.mac1609_4 	SlotsBackoff 	7
scalar RSUExampleScenario.node[387].nic.mac1609_4 	NumInternalContention 	0
scalar RSUExampleScenario.node[387].nic.mac1609_4 	totalBusyTime 	0.001345
scalar RSUExampleScenario.node[387].veinsmobility 	startTime 	1841
scalar RSUExampleScenario.node[387].veinsmobility 	totalTime 	646
scalar RSUExampleScenario.node[387].veinsmobility 	stopTime 	2488
scalar RSUExampleScenario.node[387].veinsmobility 	minSpeed 	0
scalar RSUExampleScenario.node[387].veinsmobility 	maxSpeed 	16.667626555272
scalar RSUExampleScenario.node[387].veinsmobility 	totalDistance 	3255.4760638251
scalar RSUExampleScenario.node[387].veinsmobility 	totalCO2Emission 	1120.8930207376
scalar RSUExampleScenario.node[379].nic.phy80211p 	busyTime 	2.0029806259314e-06
scalar RSUExampleScenario.node[379].nic.mac1609_4 	ReceivedUnicastPackets 	0
scalar RSUExampleScenario.node[379].nic.mac1609_4 	ReceivedBroadcasts 	12
scalar RSUExampleScenario.node[379].nic.mac1609_4 	SentPackets 	1
scalar RSUExampleScenario.node[379].nic.mac1609_4 	SNIRLostPackets 	2
scalar RSUExampleScenario.node[379].nic.mac1609_4 	RXTXLostPackets 	1
scalar RSUExampleScenario.node[379].nic.mac1609_4 	TotalLostPackets 	3
scalar RSUExampleScenario.node[379].nic.mac1609_4 	DroppedPacketsInMac 	0
scalar RSUExampleScenario.node[379].nic.mac1609_4 	TooLittleTime 	0
scalar RSUExampleScenario.node[379].nic.mac1609_4 	TimesIntoBackoff 	1
scalar RSUExampleScenario.node[379].nic.mac1609_4 	SlotsBackoff 	7
scalar RSUExampleScenario.node[379].nic.mac1609_4 	NumInternalContention 	0
scalar RSUExampleScenario.node[379].nic.mac1609_4 	totalBusyTime 	0.001345085301
scalar RSUExampleScenario.node[379].veinsmobility 	startTime 	1825
scalar RSUExampleScenario.node[379].veinsmobility 	totalTime 	670
scalar RSUExampleScenario.node[379].veinsmobility 	stopTime 	2496
scalar RSUExampleScenario.node[379].veinsmobility 	minSpeed 	0
scalar RSUExampleScenario.node[379].veinsmobility 	maxSpeed 	27.769861037139
scalar RSUExampleScenario.node[379].veinsmobility 	totalDistance 	3396.6356703781
scalar RSUExampleScenario.node[379].veinsmobility 	totalCO2Emission 	1180.7358137705
scalar RSUExampleScenario.node[384].nic.phy80211p 	busyTime 	2.1654135338346e-06
scalar RSUExampleScenario.node[384].nic.mac1609_4 	ReceivedUnicastPackets 	0
scalar RSUExampleScenario.node[384].nic.mac1609_4 	ReceivedBroadcasts 	11
scalar RSUExampleScenario.node[384].nic.mac1609_4 	SentPackets 	1
scalar RSUExampleScenario.node[384].nic.mac1609_4 	SNIRLostPackets 	4
scalar RSUExampleScenario.node[384].nic.mac1609_4 	RXTXLostPackets 	0
scalar RSUExampleScenario.node[384].nic.mac1609_4 	TotalLostPackets 	4
scalar RSUExampleScenario.node[384].nic.mac1609_4 	DroppedPacketsInMac 	0
scalar RSUExampleScenario.node[384].nic.mac1609_4 	TooLittleTime 	0
scalar RSUExampleScenario.node[384].nic.mac1609_4 	TimesIntoBackoff 	1
scalar RSUExampleScenario.node[384].nic.mac1609_4 	SlotsBackoff 	4
scalar RSUExampleScenario.node[384].nic.mac1609_4 	NumInternalContention 	0
scalar RSUExampleScenario.node[384].nic.mac1609_4 	totalBusyTime 	0.001345
scalar RSUExampleScenario.node[384].veinsmobility 	startTime 	1835
scalar RSUExampleScenario.node[384].veinsmobility 	totalTime 	664
scalar RSUExampleScenario.node[384].veinsmobility 	stopTime 	2500
scalar RSUExampleScenario.node[384].veinsmobility 	minSpeed 	0
scalar RSUExampleScenario.node[384].veinsmobility 	maxSpeed 	27.77091151536
scalar RSUExampleScenario.node[384].veinsmobility 	totalDistance 	3393.1490539162
scalar RSUExampleScenario.node[384].veinsmobility 	totalCO2Emission 	1166.6249513238
scalar RSUExampleScenario.node[388].nic.phy80211p 	busyTime 	2.0149925037481e-06
scalar RSUExampleScenario.node[388].nic.mac1609_4 	ReceivedUnicastPackets 	0
scalar RSUExampleScenario.node[388].nic.mac1609_4 	ReceivedBroadcasts 	12
scalar RSUExampleScenario.node[388].nic.mac1609_4 	SentPackets 	1
scalar RSUExampleScenario.node[388].nic.mac1609_4 	SNIRLostPackets 	2
scalar RSUExampleScenario.node[388].nic.mac1609_4 	RXTXLostPackets 	1
scalar RSUExampleScenario.node[388].nic.mac1609_4 	TotalLostPackets 	3
scalar RSUExampleScenario.node[388].nic.mac1609_4 	DroppedPacketsInMac 	0
scalar RSUExampleScenario.node[388].nic.mac1609_4 	TooLittleTime 	0
scalar RSUExampleScenario.node[388].nic.mac1609_4 	TimesIntoBackoff 	1
scalar RSUExampleScenario.node[388].nic.mac1609_4 	SlotsBackoff 	3
scalar RSUExampleScenario.node[388].nic.mac1609_4 	NumInternalContention 	0
scalar RSUExampleScenario.node[388].nic.mac1609_4 	totalBusyTime 	0.001345
scalar RSUExampleScenario.node[388].veinsmobility 	startTime 	1843
scalar RSUExampleScenario.node[388].veinsmobility 	totalTime 	666
scalar RSUExampleScenario.node[388].veinsmobility 	stopTime 	2510
scalar RSUExampleScenario.node[388].veinsmobility 	minSpeed 	0
scalar RSUExampleScenario.node[388].veinsmobility 	maxSpeed 	16.669905276234
scalar RSUExampleScenario.node[388].veinsmobility 	totalDistance 	3249.8885203113
scalar RSUExampleScenario.node[388].veinsmobility 	totalCO2Emission 	1137.7785609053
scalar RSUExampleScenario.node[389].nic.phy80211p 	busyTime 	2.1460506706408e-06
scalar RSUExampleScenario.node[389].nic.mac1609_4 	ReceivedUnicastPackets 	0
scalar RSUExampleScenario.node[389].nic.mac1609_4 	ReceivedBroadcasts 	11
scalar RSUExampleScenario.node[389].nic.mac1609_4 	SentPackets 	1
scalar RSUExampleScenario.node[389].nic.mac1609_4 	SNIRLostPackets 	4
scalar RSUExampleScenario.node[389].nic.mac1609_4 	RXTXLostPackets 	0
scalar RSUExampleScenario.node[389].nic.mac1609_4 	TotalLostPackets 	4
scalar RSUExampleScenario.node[389].nic.mac1609_4 	DroppedPacketsInMac 	0
scalar RSUExampleScenario.node[389].nic.mac1609_4 	TooLittleTime 	0
scalar RSUExampleScenario.node[389].nic.mac1609_4 	TimesIntoBackoff 	1
scalar RSUExampleScenario.node[389].nic.mac1609_4 	SlotsBackoff 	7
scalar RSUExampleScenario.node[389].nic.mac1609_4 	NumInternalContention 	0
scalar RSUExampleScenario.node[389].nic.mac1609_4 	totalBusyTime 	0.001345
scalar RSUExampleScenario.node[389].veinsmobility 	startTime 	1845
scalar RSUExampleScenario.node[389].veinsmobility 	totalTime 	670
scalar RSUExampleScenario.node[389].veinsmobility 	stopTime 	2516
scalar RSUExampleScenario.node[389].veinsmobility 	minSpeed 	0
scalar RSUExampleScenario.node[389].veinsmobility 	maxSpeed 	16.665116249988
scalar RSUExampleScenario.node[389].veinsmobility 	totalDistance 	3255.8747807002
scalar RSUExampleScenario.node[389].veinsmobility 	totalCO2Emission 	1134.400951644
scalar RSUExampleScenario.rsu[0].nic.phy80211p 	busyTime 	1.536e-07
scalar RSUExampleScenario.rsu[0].nic.mac1609_4 	ReceivedUnicastPackets 	0
scalar RSUExampleScenario.rsu[0].nic.mac1609_4 	ReceivedBroadcasts 	16
scalar RSUExampleScenario.rsu[0].nic.mac1609_4 	SentPackets 	1
scalar RSUExampleScenario.rsu[0].nic.mac1609_4 	SNIRLostPackets 	0
scalar RSUExampleScenario.rsu[0].nic.mac1609_4 	RXTXLostPackets 	0
scalar RSUExampleScenario.rsu[0].nic.mac1609_4 	TotalLostPackets 	0
scalar RSUExampleScenario.rsu[0].nic.mac1609_4 	DroppedPacketsInMac 	0
scalar RSUExampleScenario.rsu[0].nic.mac1609_4 	TooLittleTime 	0
scalar RSUExampleScenario.rsu[0].nic.mac1609_4 	TimesIntoBackoff 	1
scalar RSUExampleScenario.rsu[0].nic.mac1609_4 	SlotsBackoff 	5
scalar RSUExampleScenario.rsu[0].nic.mac1609_4 	NumInternalContention 	0
scalar RSUExampleScenario.rsu[0].nic.mac1609_4 	totalBusyTime 	0.001633
