version 2
run debug-0-20161220-17:41:15-2675
attr configname debug
attr datetime 20161220-17:41:15
attr experiment debug
attr inifile omnetpp.ini
attr iterationvars ""
attr iterationvars2 $repetition=0
attr measurement ""
attr network RSUExampleScenario
attr processid 2675
attr repetition 0
attr replication #0
attr resultdir results
attr runnumber 0
attr seedset 0
param **.coreDebug false
param **.debug false
param *.**.nic.mac1609_4.bitrate 27Mbps
param *.**.nic.mac1609_4.txPower 20mW
param *.**.nic.mac1609_4.useServiceChannel false
param *.**.nic.phy80211p.analogueModels "xmldoc(\"config.xml\")"
param *.**.nic.phy80211p.decider "xmldoc(\"config.xml\")"
param *.**.nic.phy80211p.sensitivity -89dBm
param *.**.nic.phy80211p.thermalNoise -110dBm
param *.**.nic.phy80211p.usePropagationDelay true
param *.**.nic.phy80211p.useThermalNoise true
param *.annotations.draw false
param *.connectionManager.alpha 2.0
param *.connectionManager.carrierFrequency "5.890e9 Hz"
param *.connectionManager.pMax 20mW
param *.connectionManager.sat -89dBm
param *.connectionManager.sendDirect true
param *.manager.autoShutdown true
param *.manager.host "\"localhost\""
param *.manager.launchConfig "xmldoc(\"erlangen.launchd.xml\")"
param *.manager.margin 25
param *.manager.moduleDisplayString "\"\""
param *.manager.moduleName "\"node\""
param *.manager.moduleType "\"org.car2x.veins.nodes.Car\""
param *.manager.port 9999
param *.manager.updateInterval 1s
param *.node[*].appl.beaconInterval 1s
param *.node[*].appl.beaconPriority 3
param *.node[*].appl.dataOnSch false
param *.node[*].appl.dataPriority 2
param *.node[*].appl.debug false
param *.node[*].appl.headerLength "256 bit"
param *.node[*].appl.maxOffset 0.005s
param *.node[*].appl.sendBeacons false
param *.node[*].appl.sendData true
param *.node[*].applType "\"TraCIDemo11p\""
param *.node[*].mobilityType "\"TraCIMobility\""
param *.node[*].mobilityType.debug true
param *.node[*].veinsmobility.accidentCount 5
param *.node[*].veinsmobility.accidentDuration 43s
param *.node[*].veinsmobility.accidentStart 85s
param *.node[*].veinsmobility.x 0
param *.node[*].veinsmobility.y 0
param *.node[*].veinsmobility.z 1.895
param *.node[*].veinsmobilityType "\"org.car2x.veins.modules.mobility.traci.TraCIMobility\""
param *.node[*].veinsmobilityType.debug true
param *.obstacles.debug false
param *.obstacles.obstacles "xmldoc(\"config.xml\", \"//AnalogueModel[@type='SimpleObstacleShadowing']/obstacles\")"
param *.playgroundSizeX 2500m
param *.playgroundSizeY 2500m
param *.playgroundSizeZ 50m
param *.rsu[*].appl.beaconInterval 1s
param *.rsu[*].appl.beaconPriority 3
param *.rsu[*].appl.dataOnSch false
param *.rsu[*].appl.dataPriority 2
param *.rsu[*].appl.debug false
param *.rsu[*].appl.headerLength "256 bit"
param *.rsu[*].appl.maxOffset 0.005s
param *.rsu[*].appl.sendBeacons false
param *.rsu[*].appl.sendData true
param *.rsu[*].applType "\"TraCIDemoRSU11p\""
param *.rsu[0].mobility.x 2000
param *.rsu[0].mobility.y 2000
param *.rsu[0].mobility.z 3
param *.world.use2D false
param *.world.useTorus false

scalar RSUExampleScenario.node[0].nic.phy80211p 	busyTime 	2.9179331306991e-07
scalar RSUExampleScenario.node[0].nic.mac1609_4 	ReceivedUnicastPackets 	0
scalar RSUExampleScenario.node[0].nic.mac1609_4 	ReceivedBroadcasts 	0
scalar RSUExampleScenario.node[0].nic.mac1609_4 	SentPackets 	1
scalar RSUExampleScenario.node[0].nic.mac1609_4 	SNIRLostPackets 	1
scalar RSUExampleScenario.node[0].nic.mac1609_4 	RXTXLostPackets 	0
scalar RSUExampleScenario.node[0].nic.mac1609_4 	TotalLostPackets 	1
scalar RSUExampleScenario.node[0].nic.mac1609_4 	DroppedPacketsInMac 	0
scalar RSUExampleScenario.node[0].nic.mac1609_4 	TooLittleTime 	0
scalar RSUExampleScenario.node[0].nic.mac1609_4 	TimesIntoBackoff 	1
scalar RSUExampleScenario.node[0].nic.mac1609_4 	SlotsBackoff 	3
scalar RSUExampleScenario.node[0].nic.mac1609_4 	NumInternalContention 	0
scalar RSUExampleScenario.node[0].nic.mac1609_4 	totalBusyTime 	0.000193
scalar RSUExampleScenario.node[0].veinsmobility 	startTime 	1
scalar RSUExampleScenario.node[0].veinsmobility 	totalTime 	328
scalar RSUExampleScenario.node[0].veinsmobility 	stopTime 	330
scalar RSUExampleScenario.node[0].veinsmobility 	minSpeed 	0
scalar RSUExampleScenario.node[0].veinsmobility 	maxSpeed 	27.768710480146
scalar RSUExampleScenario.node[0].veinsmobility 	totalDistance 	3395.4190226262
scalar RSUExampleScenario.node[0].veinsmobility 	totalCO2Emission 	949.14669909193
scalar RSUExampleScenario.node[1].nic.phy80211p 	busyTime 	4.256157635468e-06
scalar RSUExampleScenario.node[1].nic.mac1609_4 	ReceivedUnicastPackets 	0
scalar RSUExampleScenario.node[1].nic.mac1609_4 	ReceivedBroadcasts 	16
scalar RSUExampleScenario.node[1].nic.mac1609_4 	SentPackets 	1
scalar RSUExampleScenario.node[1].nic.mac1609_4 	SNIRLostPackets 	2
scalar RSUExampleScenario.node[1].nic.mac1609_4 	RXTXLostPackets 	0
scalar RSUExampleScenario.node[1].nic.mac1609_4 	TotalLostPackets 	2
scalar RSUExampleScenario.node[1].nic.mac1609_4 	DroppedPacketsInMac 	0
scalar RSUExampleScenario.node[1].nic.mac1609_4 	TooLittleTime 	0
scalar RSUExampleScenario.node[1].nic.mac1609_4 	TimesIntoBackoff 	2
scalar RSUExampleScenario.node[1].nic.mac1609_4 	SlotsBackoff 	10
scalar RSUExampleScenario.node[1].nic.mac1609_4 	NumInternalContention 	0
scalar RSUExampleScenario.node[1].nic.mac1609_4 	totalBusyTime 	0.001729
scalar RSUExampleScenario.node[1].veinsmobility 	startTime 	3
scalar RSUExampleScenario.node[1].veinsmobility 	totalTime 	405
scalar RSUExampleScenario.node[1].veinsmobility 	stopTime 	409
scalar RSUExampleScenario.node[1].veinsmobility 	minSpeed 	0
scalar RSUExampleScenario.node[1].veinsmobility 	maxSpeed 	27.778188040318
scalar RSUExampleScenario.node[1].veinsmobility 	totalDistance 	3392.9752663898
scalar RSUExampleScenario.node[1].veinsmobility 	totalCO2Emission 	901.65142820278
scalar RSUExampleScenario.node[2].nic.phy80211p 	busyTime 	4.256157635468e-06
scalar RSUExampleScenario.node[2].nic.mac1609_4 	ReceivedUnicastPackets 	0
scalar RSUExampleScenario.node[2].nic.mac1609_4 	ReceivedBroadcasts 	16
scalar RSUExampleScenario.node[2].nic.mac1609_4 	SentPackets 	1
scalar RSUExampleScenario.node[2].nic.mac1609_4 	SNIRLostPackets 	2
scalar RSUExampleScenario.node[2].nic.mac1609_4 	RXTXLostPackets 	0
scalar RSUExampleScenario.node[2].nic.mac1609_4 	TotalLostPackets 	2
scalar RSUExampleScenario.node[2].nic.mac1609_4 	DroppedPacketsInMac 	0
scalar RSUExampleScenario.node[2].nic.mac1609_4 	TooLittleTime 	0
scalar RSUExampleScenario.node[2].nic.mac1609_4 	TimesIntoBackoff 	1
scalar RSUExampleScenario.node[2].nic.mac1609_4 	SlotsBackoff 	4
scalar RSUExampleScenario.node[2].nic.mac1609_4 	NumInternalContention 	0
scalar RSUExampleScenario.node[2].nic.mac1609_4 	totalBusyTime 	0.001729
scalar RSUExampleScenario.node[2].veinsmobility 	startTime 	5
scalar RSUExampleScenario.node[2].veinsmobility 	totalTime 	405
scalar RSUExampleScenario.node[2].veinsmobility 	stopTime 	411
scalar RSUExampleScenario.node[2].veinsmobility 	minSpeed 	0
scalar RSUExampleScenario.node[2].veinsmobility 	maxSpeed 	27.777677725879
scalar RSUExampleScenario.node[2].veinsmobility 	totalDistance 	3398.1414035202
scalar RSUExampleScenario.node[2].veinsmobility 	totalCO2Emission 	1008.444891508
scalar RSUExampleScenario.node[5].nic.phy80211p 	busyTime 	4.5260545905707e-06
scalar RSUExampleScenario.node[5].nic.mac1609_4 	ReceivedUnicastPackets 	0
scalar RSUExampleScenario.node[5].nic.mac1609_4 	ReceivedBroadcasts 	15
scalar RSUExampleScenario.node[5].nic.mac1609_4 	SentPackets 	1
scalar RSUExampleScenario.node[5].nic.mac1609_4 	SNIRLostPackets 	4
scalar RSUExampleScenario.node[5].nic.mac1609_4 	RXTXLostPackets 	0
scalar RSUExampleScenario.node[5].nic.mac1609_4 	TotalLostPackets 	4
scalar RSUExampleScenario.node[5].nic.mac1609_4 	DroppedPacketsInMac 	0
scalar RSUExampleScenario.node[5].nic.mac1609_4 	TooLittleTime 	0
scalar RSUExampleScenario.node[5].nic.mac1609_4 	TimesIntoBackoff 	1
scalar RSUExampleScenario.node[5].nic.mac1609_4 	SlotsBackoff 	2
scalar RSUExampleScenario.node[5].nic.mac1609_4 	NumInternalContention 	0
scalar RSUExampleScenario.node[5].nic.mac1609_4 	totalBusyTime 	0.001729
scalar RSUExampleScenario.node[5].veinsmobility 	startTime 	10
scalar RSUExampleScenario.node[5].veinsmobility 	totalTime 	402
scalar RSUExampleScenario.node[5].veinsmobility 	stopTime 	413
scalar RSUExampleScenario.node[5].veinsmobility 	minSpeed 	0
scalar RSUExampleScenario.node[5].veinsmobility 	maxSpeed 	27.763528873604
scalar RSUExampleScenario.node[5].veinsmobility 	totalDistance 	3392.6282125945
scalar RSUExampleScenario.node[5].veinsmobility 	totalCO2Emission 	970.72572146072
scalar RSUExampleScenario.node[4].nic.phy80211p 	busyTime 	4.1538461538462e-06
scalar RSUExampleScenario.node[4].nic.mac1609_4 	ReceivedUnicastPackets 	0
scalar RSUExampleScenario.node[4].nic.mac1609_4 	ReceivedBroadcasts 	16
scalar RSUExampleScenario.node[4].nic.mac1609_4 	SentPackets 	1
scalar RSUExampleScenario.node[4].nic.mac1609_4 	SNIRLostPackets 	2
scalar RSUExampleScenario.node[4].nic.mac1609_4 	RXTXLostPackets 	0
scalar RSUExampleScenario.node[4].nic.mac1609_4 	TotalLostPackets 	2
scalar RSUExampleScenario.node[4].nic.mac1609_4 	DroppedPacketsInMac 	0
scalar RSUExampleScenario.node[4].nic.mac1609_4 	TooLittleTime 	0
scalar RSUExampleScenario.node[4].nic.mac1609_4 	TimesIntoBackoff 	2
scalar RSUExampleScenario.node[4].nic.mac1609_4 	SlotsBackoff 	8
scalar RSUExampleScenario.node[4].nic.mac1609_4 	NumInternalContention 	0
scalar RSUExampleScenario.node[4].nic.mac1609_4 	totalBusyTime 	0.001729
scalar RSUExampleScenario.node[4].veinsmobility 	startTime 	8
scalar RSUExampleScenario.node[4].veinsmobility 	totalTime 	415
scalar RSUExampleScenario.node[4].veinsmobility 	stopTime 	424
scalar RSUExampleScenario.node[4].veinsmobility 	minSpeed 	0
scalar RSUExampleScenario.node[4].veinsmobility 	maxSpeed 	27.75182667057
scalar RSUExampleScenario.node[4].veinsmobility 	totalDistance 	3396.4750393502
scalar RSUExampleScenario.node[4].veinsmobility 	totalCO2Emission 	993.4700925646
scalar RSUExampleScenario.node[9].nic.phy80211p 	busyTime 	4.4036697247706e-06
scalar RSUExampleScenario.node[9].nic.mac1609_4 	ReceivedUnicastPackets 	0
scalar RSUExampleScenario.node[9].nic.mac1609_4 	ReceivedBroadcasts 	16
scalar RSUExampleScenario.node[9].nic.mac1609_4 	SentPackets 	1
scalar RSUExampleScenario.node[9].nic.mac1609_4 	SNIRLostPackets 	4
scalar RSUExampleScenario.node[9].nic.mac1609_4 	RXTXLostPackets 	0
scalar RSUExampleScenario.node[9].nic.mac1609_4 	TotalLostPackets 	4
scalar RSUExampleScenario.node[9].nic.mac1609_4 	DroppedPacketsInMac 	0
scalar RSUExampleScenario.node[9].nic.mac1609_4 	TooLittleTime 	0
scalar RSUExampleScenario.node[9].nic.mac1609_4 	TimesIntoBackoff 	2
scalar RSUExampleScenario.node[9].nic.mac1609_4 	SlotsBackoff 	3
scalar RSUExampleScenario.node[9].nic.mac1609_4 	NumInternalContention 	0
scalar RSUExampleScenario.node[9].nic.mac1609_4 	totalBusyTime 	0.001825
scalar RSUExampleScenario.node[9].veinsmobility 	startTime 	17
scalar RSUExampleScenario.node[9].veinsmobility 	totalTime 	435
scalar RSUExampleScenario.node[9].veinsmobility 	stopTime 	453
scalar RSUExampleScenario.node[9].veinsmobility 	minSpeed 	0
scalar RSUExampleScenario.node[9].veinsmobility 	maxSpeed 	27.771861459516
scalar RSUExampleScenario.node[9].veinsmobility 	totalDistance 	3396.4234236179
scalar RSUExampleScenario.node[9].veinsmobility 	totalCO2Emission 	1011.2873600672
scalar RSUExampleScenario.node[13].nic.phy80211p 	busyTime 	5.0860927152318e-06
scalar RSUExampleScenario.node[13].nic.mac1609_4 	ReceivedUnicastPackets 	0
scalar RSUExampleScenario.node[13].nic.mac1609_4 	ReceivedBroadcasts 	16
scalar RSUExampleScenario.node[13].nic.mac1609_4 	SentPackets 	1
scalar RSUExampleScenario.node[13].nic.mac1609_4 	SNIRLostPackets 	8
scalar RSUExampleScenario.node[13].nic.mac1609_4 	RXTXLostPackets 	0
scalar RSUExampleScenario.node[13].nic.mac1609_4 	TotalLostPackets 	8
scalar RSUExampleScenario.node[13].nic.mac1609_4 	DroppedPacketsInMac 	0
scalar RSUExampleScenario.node[13].nic.mac1609_4 	TooLittleTime 	0
scalar RSUExampleScenario.node[13].nic.mac1609_4 	TimesIntoBackoff 	1
scalar RSUExampleScenario.node[13].nic.mac1609_4 	SlotsBackoff 	2
scalar RSUExampleScenario.node[13].nic.mac1609_4 	NumInternalContention 	0
scalar RSUExampleScenario.node[13].nic.mac1609_4 	totalBusyTime 	0.002017021343
scalar RSUExampleScenario.node[13].veinsmobility 	startTime 	25
scalar RSUExampleScenario.node[13].veinsmobility 	totalTime 	452
scalar RSUExampleScenario.node[13].veinsmobility 	stopTime 	478
scalar RSUExampleScenario.node[13].veinsmobility 	minSpeed 	0
scalar RSUExampleScenario.node[13].veinsmobility 	maxSpeed 	27.763474684097
scalar RSUExampleScenario.node[13].veinsmobility 	totalDistance 	3397.8280734978
scalar RSUExampleScenario.node[13].veinsmobility 	totalCO2Emission 	1049.6440106776
scalar RSUExampleScenario.node[7].nic.phy80211p 	busyTime 	3.7795275590551e-06
scalar RSUExampleScenario.node[7].nic.mac1609_4 	ReceivedUnicastPackets 	0
scalar RSUExampleScenario.node[7].nic.mac1609_4 	ReceivedBroadcasts 	16
scalar RSUExampleScenario.node[7].nic.mac1609_4 	SentPackets 	1
scalar RSUExampleScenario.node[7].nic.mac1609_4 	SNIRLostPackets 	4
scalar RSUExampleScenario.node[7].nic.mac1609_4 	RXTXLostPackets 	0
scalar RSUExampleScenario.node[7].nic.mac1609_4 	TotalLostPackets 	4
scalar RSUExampleScenario.node[7].nic.mac1609_4 	DroppedPacketsInMac 	0
scalar RSUExampleScenario.node[7].nic.mac1609_4 	TooLittleTime 	0
scalar RSUExampleScenario.node[7].nic.mac1609_4 	TimesIntoBackoff 	2
scalar RSUExampleScenario.node[7].nic.mac1609_4 	SlotsBackoff 	2
scalar RSUExampleScenario.node[7].nic.mac1609_4 	NumInternalContention 	0
scalar RSUExampleScenario.node[7].nic.mac1609_4 	totalBusyTime 	0.001825
scalar RSUExampleScenario.node[7].veinsmobility 	startTime 	14
scalar RSUExampleScenario.node[7].veinsmobility 	totalTime 	507
scalar RSUExampleScenario.node[7].veinsmobility 	stopTime 	522
scalar RSUExampleScenario.node[7].veinsmobility 	minSpeed 	0
scalar RSUExampleScenario.node[7].veinsmobility 	maxSpeed 	27.737601034408
scalar RSUExampleScenario.node[7].veinsmobility 	totalDistance 	3396.6351738202
scalar RSUExampleScenario.node[7].veinsmobility 	totalCO2Emission 	1076.4104535679
scalar RSUExampleScenario.node[15].nic.phy80211p 	busyTime 	5.112426035503e-06
scalar RSUExampleScenario.node[15].nic.mac1609_4 	ReceivedUnicastPackets 	0
scalar RSUExampleScenario.node[15].nic.mac1609_4 	ReceivedBroadcasts 	18
scalar RSUExampleScenario.node[15].nic.mac1609_4 	SentPackets 	1
scalar RSUExampleScenario.node[15].nic.mac1609_4 	SNIRLostPackets 	9
scalar RSUExampleScenario.node[15].nic.mac1609_4 	RXTXLostPackets 	0
scalar RSUExampleScenario.node[15].nic.mac1609_4 	TotalLostPackets 	9
scalar RSUExampleScenario.node[15].nic.mac1609_4 	DroppedPacketsInMac 	0
scalar RSUExampleScenario.node[15].nic.mac1609_4 	TooLittleTime 	0
scalar RSUExampleScenario.node[15].nic.mac1609_4 	TimesIntoBackoff 	1
scalar RSUExampleScenario.node[15].nic.mac1609_4 	SlotsBackoff 	3
scalar RSUExampleScenario.node[15].nic.mac1609_4 	NumInternalContention 	0
scalar RSUExampleScenario.node[15].nic.mac1609_4 	totalBusyTime 	0.002209
scalar RSUExampleScenario.node[15].veinsmobility 	startTime 	28
scalar RSUExampleScenario.node[15].veinsmobility 	totalTime 	506
scalar RSUExampleScenario.node[15].veinsmobility 	stopTime 	535
scalar RSUExampleScenario.node[15].veinsmobility 	minSpeed 	0
scalar RSUExampleScenario.node[15].veinsmobility 	maxSpeed 	27.750359571008
scalar RSUExampleScenario.node[15].veinsmobility 	totalDistance 	3403.1302009288
scalar RSUExampleScenario.node[15].veinsmobility 	totalCO2Emission 	1117.0576738884
scalar RSUExampleScenario.node[3].nic.phy80211p 	busyTime 	3.2603773584906e-06
scalar RSUExampleScenario.node[3].nic.mac1609_4 	ReceivedUnicastPackets 	0
scalar RSUExampleScenario.node[3].nic.mac1609_4 	ReceivedBroadcasts 	16
scalar RSUExampleScenario.node[3].nic.mac1609_4 	SentPackets 	1
scalar RSUExampleScenario.node[3].nic.mac1609_4 	SNIRLostPackets 	2
scalar RSUExampleScenario.node[3].nic.mac1609_4 	RXTXLostPackets 	0
scalar RSUExampleScenario.node[3].nic.mac1609_4 	TotalLostPackets 	2
scalar RSUExampleScenario.node[3].nic.mac1609_4 	DroppedPacketsInMac 	0
scalar RSUExampleScenario.node[3].nic.mac1609_4 	TooLittleTime 	0
scalar RSUExampleScenario.node[3].nic.mac1609_4 	TimesIntoBackoff 	1
scalar RSUExampleScenario.node[3].nic.mac1609_4 	SlotsBackoff 	1
scalar RSUExampleScenario.node[3].nic.mac1609_4 	NumInternalContention 	0
scalar RSUExampleScenario.node[3].nic.mac1609_4 	totalBusyTime 	0.001729
scalar RSUExampleScenario.node[3].veinsmobility 	startTime 	7
scalar RSUExampleScenario.node[3].veinsmobility 	totalTime 	529
scalar RSUExampleScenario.node[3].veinsmobility 	stopTime 	537
scalar RSUExampleScenario.node[3].veinsmobility 	minSpeed 	0
scalar RSUExampleScenario.node[3].veinsmobility 	maxSpeed 	27.750909077181
scalar RSUExampleScenario.node[3].veinsmobility 	totalDistance 	3397.9617358223
scalar RSUExampleScenario.node[3].veinsmobility 	totalCO2Emission 	1204.2018153465
scalar RSUExampleScenario.node[16].nic.phy80211p 	busyTime 	5.0923379174853e-06
scalar RSUExampleScenario.node[16].nic.mac1609_4 	ReceivedUnicastPackets 	0
scalar RSUExampleScenario.node[16].nic.mac1609_4 	ReceivedBroadcasts 	19
scalar RSUExampleScenario.node[16].nic.mac1609_4 	SentPackets 	1
scalar RSUExampleScenario.node[16].nic.mac1609_4 	SNIRLostPackets 	8
scalar RSUExampleScenario.node[16].nic.mac1609_4 	RXTXLostPackets 	2
scalar RSUExampleScenario.node[16].nic.mac1609_4 	TotalLostPackets 	10
scalar RSUExampleScenario.node[16].nic.mac1609_4 	DroppedPacketsInMac 	0
scalar RSUExampleScenario.node[16].nic.mac1609_4 	TooLittleTime 	0
scalar RSUExampleScenario.node[16].nic.mac1609_4 	TimesIntoBackoff 	1
scalar RSUExampleScenario.node[16].nic.mac1609_4 	SlotsBackoff 	5
scalar RSUExampleScenario.node[16].nic.mac1609_4 	NumInternalContention 	0
scalar RSUExampleScenario.node[16].nic.mac1609_4 	totalBusyTime 	0.002305
scalar RSUExampleScenario.node[16].veinsmobility 	startTime 	30
scalar RSUExampleScenario.node[16].veinsmobility 	totalTime 	508
scalar RSUExampleScenario.node[16].veinsmobility 	stopTime 	539
scalar RSUExampleScenario.node[16].veinsmobility 	minSpeed 	0
scalar RSUExampleScenario.node[16].veinsmobility 	maxSpeed 	27.715720625184
scalar RSUExampleScenario.node[16].veinsmobility 	totalDistance 	3388.1512641635
scalar RSUExampleScenario.node[16].veinsmobility 	totalCO2Emission 	1233.815222607
scalar RSUExampleScenario.node[18].nic.phy80211p 	busyTime 	5.6581532416503e-06
scalar RSUExampleScenario.node[18].nic.mac1609_4 	ReceivedUnicastPackets 	0
scalar RSUExampleScenario.node[18].nic.mac1609_4 	ReceivedBroadcasts 	18
scalar RSUExampleScenario.node[18].nic.mac1609_4 	SentPackets 	1
scalar RSUExampleScenario.node[18].nic.mac1609_4 	SNIRLostPackets 	12
scalar RSUExampleScenario.node[18].nic.mac1609_4 	RXTXLostPackets 	0
scalar RSUExampleScenario.node[18].nic.mac1609_4 	TotalLostPackets 	12
scalar RSUExampleScenario.node[18].nic.mac1609_4 	DroppedPacketsInMac 	0
scalar RSUExampleScenario.node[18].nic.mac1609_4 	TooLittleTime 	0
scalar RSUExampleScenario.node[18].nic.mac1609_4 	TimesIntoBackoff 	1
scalar RSUExampleScenario.node[18].nic.mac1609_4 	SlotsBackoff 	6
scalar RSUExampleScenario.node[18].nic.mac1609_4 	NumInternalContention 	0
scalar RSUExampleScenario.node[18].nic.mac1609_4 	totalBusyTime 	0.002401
scalar RSUExampleScenario.node[18].veinsmobility 	startTime 	33
scalar RSUExampleScenario.node[18].veinsmobility 	totalTime 	508
scalar RSUExampleScenario.node[18].veinsmobility 	stopTime 	542
scalar RSUExampleScenario.node[18].veinsmobility 	minSpeed 	0
scalar RSUExampleScenario.node[18].veinsmobility 	maxSpeed 	27.712539756373
scalar RSUExampleScenario.node[18].veinsmobility 	totalDistance 	3400.0163967172
scalar RSUExampleScenario.node[18].veinsmobility 	totalCO2Emission 	1211.954858521
scalar RSUExampleScenario.node[14].nic.phy80211p 	busyTime 	4.7907869481766e-06
scalar RSUExampleScenario.node[14].nic.mac1609_4 	ReceivedUnicastPackets 	0
scalar RSUExampleScenario.node[14].nic.mac1609_4 	ReceivedBroadcasts 	17
scalar RSUExampleScenario.node[14].nic.mac1609_4 	SentPackets 	1
scalar RSUExampleScenario.node[14].nic.mac1609_4 	SNIRLostPackets 	9
scalar RSUExampleScenario.node[14].nic.mac1609_4 	RXTXLostPackets 	0
scalar RSUExampleScenario.node[14].nic.mac1609_4 	TotalLostPackets 	9
scalar RSUExampleScenario.node[14].nic.mac1609_4 	DroppedPacketsInMac 	0
scalar RSUExampleScenario.node[14].nic.mac1609_4 	TooLittleTime 	0
scalar RSUExampleScenario.node[14].nic.mac1609_4 	TimesIntoBackoff 	1
scalar RSUExampleScenario.node[14].nic.mac1609_4 	SlotsBackoff 	0
scalar RSUExampleScenario.node[14].nic.mac1609_4 	NumInternalContention 	0
scalar RSUExampleScenario.node[14].nic.mac1609_4 	totalBusyTime 	0.002113
scalar RSUExampleScenario.node[14].veinsmobility 	startTime 	27
scalar RSUExampleScenario.node[14].veinsmobility 	totalTime 	520
scalar RSUExampleScenario.node[14].veinsmobility 	stopTime 	548
scalar RSUExampleScenario.node[14].veinsmobility 	minSpeed 	0
scalar RSUExampleScenario.node[14].veinsmobility 	maxSpeed 	27.770110275866
scalar RSUExampleScenario.node[14].veinsmobility 	totalDistance 	3396.2916511619
scalar RSUExampleScenario.node[14].veinsmobility 	totalCO2Emission 	1113.5100304007
scalar RSUExampleScenario.node[6].nic.phy80211p 	busyTime 	3.5164835164835e-06
scalar RSUExampleScenario.node[6].nic.mac1609_4 	ReceivedUnicastPackets 	0
scalar RSUExampleScenario.node[6].nic.mac1609_4 	ReceivedBroadcasts 	16
scalar RSUExampleScenario.node[6].nic.mac1609_4 	SentPackets 	1
scalar RSUExampleScenario.node[6].nic.mac1609_4 	SNIRLostPackets 	4
scalar RSUExampleScenario.node[6].nic.mac1609_4 	RXTXLostPackets 	0
scalar RSUExampleScenario.node[6].nic.mac1609_4 	TotalLostPackets 	4
scalar RSUExampleScenario.node[6].nic.mac1609_4 	DroppedPacketsInMac 	0
scalar RSUExampleScenario.node[6].nic.mac1609_4 	TooLittleTime 	0
scalar RSUExampleScenario.node[6].nic.mac1609_4 	TimesIntoBackoff 	2
scalar RSUExampleScenario.node[6].nic.mac1609_4 	SlotsBackoff 	10
scalar RSUExampleScenario.node[6].nic.mac1609_4 	NumInternalContention 	0
scalar RSUExampleScenario.node[6].nic.mac1609_4 	totalBusyTime 	0.001825
scalar RSUExampleScenario.node[6].veinsmobility 	startTime 	12
scalar RSUExampleScenario.node[6].veinsmobility 	totalTime 	545
scalar RSUExampleScenario.node[6].veinsmobility 	stopTime 	558
scalar RSUExampleScenario.node[6].veinsmobility 	minSpeed 	0
scalar RSUExampleScenario.node[6].veinsmobility 	maxSpeed 	27.779343798762
scalar RSUExampleScenario.node[6].veinsmobility 	totalDistance 	3394.4752592522
scalar RSUExampleScenario.node[6].veinsmobility 	totalCO2Emission 	1078.4339531003
scalar RSUExampleScenario.node[10].nic.phy80211p 	busyTime 	3.719557195572e-06
scalar RSUExampleScenario.node[10].nic.mac1609_4 	ReceivedUnicastPackets 	0
scalar RSUExampleScenario.node[10].nic.mac1609_4 	ReceivedBroadcasts 	15
scalar RSUExampleScenario.node[10].nic.mac1609_4 	SentPackets 	1
scalar RSUExampleScenario.node[10].nic.mac1609_4 	SNIRLostPackets 	6
scalar RSUExampleScenario.node[10].nic.mac1609_4 	RXTXLostPackets 	0
scalar RSUExampleScenario.node[10].nic.mac1609_4 	TotalLostPackets 	6
scalar RSUExampleScenario.node[10].nic.mac1609_4 	DroppedPacketsInMac 	0
scalar RSUExampleScenario.node[10].nic.mac1609_4 	TooLittleTime 	0
scalar RSUExampleScenario.node[10].nic.mac1609_4 	TimesIntoBackoff 	2
scalar RSUExampleScenario.node[10].nic.mac1609_4 	SlotsBackoff 	10
scalar RSUExampleScenario.node[10].nic.mac1609_4 	NumInternalContention 	0
scalar RSUExampleScenario.node[10].nic.mac1609_4 	totalBusyTime 	0.001825
scalar RSUExampleScenario.node[10].veinsmobility 	startTime 	19
scalar RSUExampleScenario.node[10].veinsmobility 	totalTime 	541
scalar RSUExampleScenario.node[10].veinsmobility 	stopTime 	561
scalar RSUExampleScenario.node[10].veinsmobility 	minSpeed 	0
scalar RSUExampleScenario.node[10].veinsmobility 	maxSpeed 	27.751222434836
scalar RSUExampleScenario.node[10].veinsmobility 	totalDistance 	3407.5420042402
scalar RSUExampleScenario.node[10].veinsmobility 	totalCO2Emission 	1176.8873167323
scalar RSUExampleScenario.node[11].nic.phy80211p 	busyTime 	3.7127071823204e-06
scalar RSUExampleScenario.node[11].nic.mac1609_4 	ReceivedUnicastPackets 	0
scalar RSUExampleScenario.node[11].nic.mac1609_4 	ReceivedBroadcasts 	15
scalar RSUExampleScenario.node[11].nic.mac1609_4 	SentPackets 	1
scalar RSUExampleScenario.node[11].nic.mac1609_4 	SNIRLostPackets 	6
scalar RSUExampleScenario.node[11].nic.mac1609_4 	RXTXLostPackets 	0
scalar RSUExampleScenario.node[11].nic.mac1609_4 	TotalLostPackets 	6
scalar RSUExampleScenario.node[11].nic.mac1609_4 	DroppedPacketsInMac 	0
scalar RSUExampleScenario.node[11].nic.mac1609_4 	TooLittleTime 	0
scalar RSUExampleScenario.node[11].nic.mac1609_4 	TimesIntoBackoff 	2
scalar RSUExampleScenario.node[11].nic.mac1609_4 	SlotsBackoff 	10
scalar RSUExampleScenario.node[11].nic.mac1609_4 	NumInternalContention 	0
scalar RSUExampleScenario.node[11].nic.mac1609_4 	totalBusyTime 	0.001825
scalar RSUExampleScenario.node[11].veinsmobility 	startTime 	20
scalar RSUExampleScenario.node[11].veinsmobility 	totalTime 	542
scalar RSUExampleScenario.node[11].veinsmobility 	stopTime 	563
scalar RSUExampleScenario.node[11].veinsmobility 	minSpeed 	0
scalar RSUExampleScenario.node[11].veinsmobility 	maxSpeed 	27.749026262658
scalar RSUExampleScenario.node[11].veinsmobility 	totalDistance 	3393.2785862133
scalar RSUExampleScenario.node[11].veinsmobility 	totalCO2Emission 	1273.8131049367
scalar RSUExampleScenario.node[12].nic.phy80211p 	busyTime 	3.8610603290676e-06
scalar RSUExampleScenario.node[12].nic.mac1609_4 	ReceivedUnicastPackets 	0
scalar RSUExampleScenario.node[12].nic.mac1609_4 	ReceivedBroadcasts 	16
scalar RSUExampleScenario.node[12].nic.mac1609_4 	SentPackets 	1
scalar RSUExampleScenario.node[12].nic.mac1609_4 	SNIRLostPackets 	6
scalar RSUExampleScenario.node[12].nic.mac1609_4 	RXTXLostPackets 	1
scalar RSUExampleScenario.node[12].nic.mac1609_4 	TotalLostPackets 	7
scalar RSUExampleScenario.node[12].nic.mac1609_4 	DroppedPacketsInMac 	0
scalar RSUExampleScenario.node[12].nic.mac1609_4 	TooLittleTime 	0
scalar RSUExampleScenario.node[12].nic.mac1609_4 	TimesIntoBackoff 	1
scalar RSUExampleScenario.node[12].nic.mac1609_4 	SlotsBackoff 	3
scalar RSUExampleScenario.node[12].nic.mac1609_4 	NumInternalContention 	0
scalar RSUExampleScenario.node[12].nic.mac1609_4 	totalBusyTime 	0.001921
scalar RSUExampleScenario.node[12].veinsmobility 	startTime 	23
scalar RSUExampleScenario.node[12].veinsmobility 	totalTime 	546
scalar RSUExampleScenario.node[12].veinsmobility 	stopTime 	570
scalar RSUExampleScenario.node[12].veinsmobility 	minSpeed 	0
scalar RSUExampleScenario.node[12].veinsmobility 	maxSpeed 	27.772976816192
scalar RSUExampleScenario.node[12].veinsmobility 	totalDistance 	3392.4772438657
scalar RSUExampleScenario.node[12].veinsmobility 	totalCO2Emission 	1039.1873175324
scalar RSUExampleScenario.node[19].nic.phy80211p 	busyTime 	5.3531598513011e-06
scalar RSUExampleScenario.node[19].nic.mac1609_4 	ReceivedUnicastPackets 	0
scalar RSUExampleScenario.node[19].nic.mac1609_4 	ReceivedBroadcasts 	15
scalar RSUExampleScenario.node[19].nic.mac1609_4 	SentPackets 	1
scalar RSUExampleScenario.node[19].nic.mac1609_4 	SNIRLostPackets 	15
scalar RSUExampleScenario.node[19].nic.mac1609_4 	RXTXLostPackets 	1
scalar RSUExampleScenario.node[19].nic.mac1609_4 	TotalLostPackets 	16
scalar RSUExampleScenario.node[19].nic.mac1609_4 	DroppedPacketsInMac 	0
scalar RSUExampleScenario.node[19].nic.mac1609_4 	TooLittleTime 	0
scalar RSUExampleScenario.node[19].nic.mac1609_4 	TimesIntoBackoff 	1
scalar RSUExampleScenario.node[19].nic.mac1609_4 	SlotsBackoff 	0
scalar RSUExampleScenario.node[19].nic.mac1609_4 	NumInternalContention 	0
scalar RSUExampleScenario.node[19].nic.mac1609_4 	totalBusyTime 	0.002305
scalar RSUExampleScenario.node[19].veinsmobility 	startTime 	34
scalar RSUExampleScenario.node[19].veinsmobility 	totalTime 	537
scalar RSUExampleScenario.node[19].veinsmobility 	stopTime 	572
scalar RSUExampleScenario.node[19].veinsmobility 	minSpeed 	0
scalar RSUExampleScenario.node[19].veinsmobility 	maxSpeed 	27.754203486498
scalar RSUExampleScenario.node[19].veinsmobility 	totalDistance 	3395.9530260831
scalar RSUExampleScenario.node[19].veinsmobility 	totalCO2Emission 	1210.4617008001
scalar RSUExampleScenario.node[8].nic.phy80211p 	busyTime 	3.4408602150538e-06
scalar RSUExampleScenario.node[8].nic.mac1609_4 	ReceivedUnicastPackets 	0
scalar RSUExampleScenario.node[8].nic.mac1609_4 	ReceivedBroadcasts 	16
scalar RSUExampleScenario.node[8].nic.mac1609_4 	SentPackets 	1
scalar RSUExampleScenario.node[8].nic.mac1609_4 	SNIRLostPackets 	4
scalar RSUExampleScenario.node[8].nic.mac1609_4 	RXTXLostPackets 	0
scalar RSUExampleScenario.node[8].nic.mac1609_4 	TotalLostPackets 	4
scalar RSUExampleScenario.node[8].nic.mac1609_4 	DroppedPacketsInMac 	0
scalar RSUExampleScenario.node[8].nic.mac1609_4 	TooLittleTime 	0
scalar RSUExampleScenario.node[8].nic.mac1609_4 	TimesIntoBackoff 	2
scalar RSUExampleScenario.node[8].nic.mac1609_4 	SlotsBackoff 	6
scalar RSUExampleScenario.node[8].nic.mac1609_4 	NumInternalContention 	0
scalar RSUExampleScenario.node[8].nic.mac1609_4 	totalBusyTime 	0.001825
scalar RSUExampleScenario.node[8].veinsmobility 	startTime 	16
scalar RSUExampleScenario.node[8].veinsmobility 	totalTime 	557
scalar RSUExampleScenario.node[8].veinsmobility 	stopTime 	574
scalar RSUExampleScenario.node[8].veinsmobility 	minSpeed 	0
scalar RSUExampleScenario.node[8].veinsmobility 	maxSpeed 	27.773561144182
scalar RSUExampleScenario.node[8].veinsmobility 	totalDistance 	3395.9436666538
scalar RSUExampleScenario.node[8].veinsmobility 	totalCO2Emission 	1130.8304991847
scalar RSUExampleScenario.node[17].nic.phy80211p 	busyTime 	4.7472527472527e-06
scalar RSUExampleScenario.node[17].nic.mac1609_4 	ReceivedUnicastPackets 	0
scalar RSUExampleScenario.node[17].nic.mac1609_4 	ReceivedBroadcasts 	19
scalar RSUExampleScenario.node[17].nic.mac1609_4 	SentPackets 	1
scalar RSUExampleScenario.node[17].nic.mac1609_4 	SNIRLostPackets 	8
scalar RSUExampleScenario.node[17].nic.mac1609_4 	RXTXLostPackets 	2
scalar RSUExampleScenario.node[17].nic.mac1609_4 	TotalLostPackets 	10
scalar RSUExampleScenario.node[17].nic.mac1609_4 	DroppedPacketsInMac 	0
scalar RSUExampleScenario.node[17].nic.mac1609_4 	TooLittleTime 	0
scalar RSUExampleScenario.node[17].nic.mac1609_4 	TimesIntoBackoff 	1
scalar RSUExampleScenario.node[17].nic.mac1609_4 	SlotsBackoff 	6
scalar RSUExampleScenario.node[17].nic.mac1609_4 	NumInternalContention 	0
scalar RSUExampleScenario.node[17].nic.mac1609_4 	totalBusyTime 	0.002305
scalar RSUExampleScenario.node[17].veinsmobility 	startTime 	31
scalar RSUExampleScenario.node[17].veinsmobility 	totalTime 	545
scalar RSUExampleScenario.node[17].veinsmobility 	stopTime 	577
scalar RSUExampleScenario.node[17].veinsmobility 	minSpeed 	0
scalar RSUExampleScenario.node[17].veinsmobility 	maxSpeed 	27.749793710625
scalar RSUExampleScenario.node[17].veinsmobility 	totalDistance 	3404.4740398053
scalar RSUExampleScenario.node[17].veinsmobility 	totalCO2Emission 	1244.6308226661
scalar RSUExampleScenario.node[57].nic.phy80211p 	busyTime 	4.7713717693837e-06
scalar RSUExampleScenario.node[57].nic.mac1609_4 	ReceivedUnicastPackets 	0
scalar RSUExampleScenario.node[57].nic.mac1609_4 	ReceivedBroadcasts 	18
scalar RSUExampleScenario.node[57].nic.mac1609_4 	SentPackets 	1
scalar RSUExampleScenario.node[57].nic.mac1609_4 	SNIRLostPackets 	7
scalar RSUExampleScenario.node[57].nic.mac1609_4 	RXTXLostPackets 	1
scalar RSUExampleScenario.node[57].nic.mac1609_4 	TotalLostPackets 	8
scalar RSUExampleScenario.node[57].nic.mac1609_4 	DroppedPacketsInMac 	0
scalar RSUExampleScenario.node[57].nic.mac1609_4 	TooLittleTime 	0
scalar RSUExampleScenario.node[57].nic.mac1609_4 	TimesIntoBackoff 	1
scalar RSUExampleScenario.node[57].nic.mac1609_4 	SlotsBackoff 	4
scalar RSUExampleScenario.node[57].nic.mac1609_4 	NumInternalContention 	0
scalar RSUExampleScenario.node[57].nic.mac1609_4 	totalBusyTime 	0.002113
scalar RSUExampleScenario.node[57].veinsmobility 	startTime 	114
scalar RSUExampleScenario.node[57].veinsmobility 	totalTime 	502
scalar RSUExampleScenario.node[57].veinsmobility 	stopTime 	617
scalar RSUExampleScenario.node[57].veinsmobility 	minSpeed 	0
scalar RSUExampleScenario.node[57].veinsmobility 	maxSpeed 	27.761122875782
scalar RSUExampleScenario.node[57].veinsmobility 	totalDistance 	3403.7999380472
scalar RSUExampleScenario.node[57].veinsmobility 	totalCO2Emission 	1213.2656832772
scalar RSUExampleScenario.node[29].nic.phy80211p 	busyTime 	5.7667844522968e-06
scalar RSUExampleScenario.node[29].nic.mac1609_4 	ReceivedUnicastPackets 	0
scalar RSUExampleScenario.node[29].nic.mac1609_4 	ReceivedBroadcasts 	19
scalar RSUExampleScenario.node[29].nic.mac1609_4 	SentPackets 	1
scalar RSUExampleScenario.node[29].nic.mac1609_4 	SNIRLostPackets 	15
scalar RSUExampleScenario.node[29].nic.mac1609_4 	RXTXLostPackets 	0
scalar RSUExampleScenario.node[29].nic.mac1609_4 	TotalLostPackets 	15
scalar RSUExampleScenario.node[29].nic.mac1609_4 	DroppedPacketsInMac 	0
scalar RSUExampleScenario.node[29].nic.mac1609_4 	TooLittleTime 	0
scalar RSUExampleScenario.node[29].nic.mac1609_4 	TimesIntoBackoff 	1
scalar RSUExampleScenario.node[29].nic.mac1609_4 	SlotsBackoff 	3
scalar RSUExampleScenario.node[29].nic.mac1609_4 	NumInternalContention 	0
scalar RSUExampleScenario.node[29].nic.mac1609_4 	totalBusyTime 	0.002497
scalar RSUExampleScenario.node[29].veinsmobility 	startTime 	53
scalar RSUExampleScenario.node[29].veinsmobility 	totalTime 	565
scalar RSUExampleScenario.node[29].veinsmobility 	stopTime 	619
scalar RSUExampleScenario.node[29].veinsmobility 	minSpeed 	0
scalar RSUExampleScenario.node[29].veinsmobility 	maxSpeed 	16.66885936141
scalar RSUExampleScenario.node[29].veinsmobility 	totalDistance 	3259.9355124658
scalar RSUExampleScenario.node[29].veinsmobility 	totalCO2Emission 	1205.8113358975
scalar RSUExampleScenario.node[39].nic.phy80211p 	busyTime 	7.5191256830601e-06
scalar RSUExampleScenario.node[39].nic.mac1609_4 	ReceivedUnicastPackets 	0
scalar RSUExampleScenario.node[39].nic.mac1609_4 	ReceivedBroadcasts 	32
scalar RSUExampleScenario.node[39].nic.mac1609_4 	SentPackets 	1
scalar RSUExampleScenario.node[39].nic.mac1609_4 	SNIRLostPackets 	11
scalar RSUExampleScenario.node[39].nic.mac1609_4 	RXTXLostPackets 	0
scalar RSUExampleScenario.node[39].nic.mac1609_4 	TotalLostPackets 	11
scalar RSUExampleScenario.node[39].nic.mac1609_4 	DroppedPacketsInMac 	0
scalar RSUExampleScenario.node[39].nic.mac1609_4 	TooLittleTime 	0
scalar RSUExampleScenario.node[39].nic.mac1609_4 	TimesIntoBackoff 	1
scalar RSUExampleScenario.node[39].nic.mac1609_4 	SlotsBackoff 	5
scalar RSUExampleScenario.node[39].nic.mac1609_4 	NumInternalContention 	0
scalar RSUExampleScenario.node[39].nic.mac1609_4 	totalBusyTime 	0.003553034613
scalar RSUExampleScenario.node[39].veinsmobility 	startTime 	72
scalar RSUExampleScenario.node[39].veinsmobility 	totalTime 	548
scalar RSUExampleScenario.node[39].veinsmobility 	stopTime 	621
scalar RSUExampleScenario.node[39].veinsmobility 	minSpeed 	0
scalar RSUExampleScenario.node[39].veinsmobility 	maxSpeed 	27.766183719654
scalar RSUExampleScenario.node[39].veinsmobility 	totalDistance 	3399.3525020482
scalar RSUExampleScenario.node[39].veinsmobility 	totalCO2Emission 	1358.8897525359
scalar RSUExampleScenario.node[33].nic.phy80211p 	busyTime 	5.1154529307282e-06
scalar RSUExampleScenario.node[33].nic.mac1609_4 	ReceivedUnicastPackets 	0
scalar RSUExampleScenario.node[33].nic.mac1609_4 	ReceivedBroadcasts 	22
scalar RSUExampleScenario.node[33].nic.mac1609_4 	SentPackets 	1
scalar RSUExampleScenario.node[33].nic.mac1609_4 	SNIRLostPackets 	8
scalar RSUExampleScenario.node[33].nic.mac1609_4 	RXTXLostPackets 	0
scalar RSUExampleScenario.node[33].nic.mac1609_4 	TotalLostPackets 	8
scalar RSUExampleScenario.node[33].nic.mac1609_4 	DroppedPacketsInMac 	0
scalar RSUExampleScenario.node[33].nic.mac1609_4 	TooLittleTime 	0
scalar RSUExampleScenario.node[33].nic.mac1609_4 	TimesIntoBackoff 	1
scalar RSUExampleScenario.node[33].nic.mac1609_4 	SlotsBackoff 	4
scalar RSUExampleScenario.node[33].nic.mac1609_4 	NumInternalContention 	0
scalar RSUExampleScenario.node[33].nic.mac1609_4 	totalBusyTime 	0.002497
scalar RSUExampleScenario.node[33].veinsmobility 	startTime 	60
scalar RSUExampleScenario.node[33].veinsmobility 	totalTime 	562
scalar RSUExampleScenario.node[33].veinsmobility 	stopTime 	623
scalar RSUExampleScenario.node[33].veinsmobility 	minSpeed 	0
scalar RSUExampleScenario.node[33].veinsmobility 	maxSpeed 	27.768855605936
scalar RSUExampleScenario.node[33].veinsmobility 	totalDistance 	3402.4321664877
scalar RSUExampleScenario.node[33].veinsmobility 	totalCO2Emission 	1376.2225345364
scalar RSUExampleScenario.node[58].nic.phy80211p 	busyTime 	7.3555992141454e-06
scalar RSUExampleScenario.node[58].nic.mac1609_4 	ReceivedUnicastPackets 	0
scalar RSUExampleScenario.node[58].nic.mac1609_4 	ReceivedBroadcasts 	24
scalar RSUExampleScenario.node[58].nic.mac1609_4 	SentPackets 	1
scalar RSUExampleScenario.node[58].nic.mac1609_4 	SNIRLostPackets 	15
scalar RSUExampleScenario.node[58].nic.mac1609_4 	RXTXLostPackets 	0
scalar RSUExampleScenario.node[58].nic.mac1609_4 	TotalLostPackets 	15
scalar RSUExampleScenario.node[58].nic.mac1609_4 	DroppedPacketsInMac 	0
scalar RSUExampleScenario.node[58].nic.mac1609_4 	TooLittleTime 	0
scalar RSUExampleScenario.node[58].nic.mac1609_4 	TimesIntoBackoff 	2
scalar RSUExampleScenario.node[58].nic.mac1609_4 	SlotsBackoff 	6
scalar RSUExampleScenario.node[58].nic.mac1609_4 	NumInternalContention 	0
scalar RSUExampleScenario.node[58].nic.mac1609_4 	totalBusyTime 	0.003169
scalar RSUExampleScenario.node[58].veinsmobility 	startTime 	117
scalar RSUExampleScenario.node[58].veinsmobility 	totalTime 	508
scalar RSUExampleScenario.node[58].veinsmobility 	stopTime 	626
scalar RSUExampleScenario.node[58].veinsmobility 	minSpeed 	0
scalar RSUExampleScenario.node[58].veinsmobility 	maxSpeed 	27.746442656973
scalar RSUExampleScenario.node[58].veinsmobility 	totalDistance 	3398.8849191225
scalar RSUExampleScenario.node[58].veinsmobility 	totalCO2Emission 	1271.1320215344
scalar RSUExampleScenario.node[27].nic.phy80211p 	busyTime 	5.8031088082902e-06
scalar RSUExampleScenario.node[27].nic.mac1609_4 	ReceivedUnicastPackets 	0
scalar RSUExampleScenario.node[27].nic.mac1609_4 	ReceivedBroadcasts 	18
scalar RSUExampleScenario.node[27].nic.mac1609_4 	SentPackets 	1
scalar RSUExampleScenario.node[27].nic.mac1609_4 	SNIRLostPackets 	17
scalar RSUExampleScenario.node[27].nic.mac1609_4 	RXTXLostPackets 	0
scalar RSUExampleScenario.node[27].nic.mac1609_4 	TotalLostPackets 	17
scalar RSUExampleScenario.node[27].nic.mac1609_4 	DroppedPacketsInMac 	0
scalar RSUExampleScenario.node[27].nic.mac1609_4 	TooLittleTime 	0
scalar RSUExampleScenario.node[27].nic.mac1609_4 	TimesIntoBackoff 	1
scalar RSUExampleScenario.node[27].nic.mac1609_4 	SlotsBackoff 	5
scalar RSUExampleScenario.node[27].nic.mac1609_4 	NumInternalContention 	0
scalar RSUExampleScenario.node[27].nic.mac1609_4 	totalBusyTime 	0.002497
scalar RSUExampleScenario.node[27].veinsmobility 	startTime 	49
scalar RSUExampleScenario.node[27].veinsmobility 	totalTime 	578
scalar RSUExampleScenario.node[27].veinsmobility 	stopTime 	628
scalar RSUExampleScenario.node[27].veinsmobility 	minSpeed 	0
scalar RSUExampleScenario.node[27].veinsmobility 	maxSpeed 	16.66943981248
scalar RSUExampleScenario.node[27].veinsmobility 	totalDistance 	3352.2700096562
scalar RSUExampleScenario.node[27].veinsmobility 	totalCO2Emission 	1149.274926992
scalar RSUExampleScenario.node[54].nic.phy80211p 	busyTime 	4.5977011494253e-06
scalar RSUExampleScenario.node[54].nic.mac1609_4 	ReceivedUnicastPackets 	0
scalar RSUExampleScenario.node[54].nic.mac1609_4 	ReceivedBroadcasts 	17
scalar RSUExampleScenario.node[54].nic.mac1609_4 	SentPackets 	1
scalar RSUExampleScenario.node[54].nic.mac1609_4 	SNIRLostPackets 	8
scalar RSUExampleScenario.node[54].nic.mac1609_4 	RXTXLostPackets 	1
scalar RSUExampleScenario.node[54].nic.mac1609_4 	TotalLostPackets 	9
scalar RSUExampleScenario.node[54].nic.mac1609_4 	DroppedPacketsInMac 	0
scalar RSUExampleScenario.node[54].nic.mac1609_4 	TooLittleTime 	0
scalar RSUExampleScenario.node[54].nic.mac1609_4 	TimesIntoBackoff 	1
scalar RSUExampleScenario.node[54].nic.mac1609_4 	SlotsBackoff 	5
scalar RSUExampleScenario.node[54].nic.mac1609_4 	NumInternalContention 	0
scalar RSUExampleScenario.node[54].nic.mac1609_4 	totalBusyTime 	0.002113
scalar RSUExampleScenario.node[54].veinsmobility 	startTime 	108
scalar RSUExampleScenario.node[54].veinsmobility 	totalTime 	521
scalar RSUExampleScenario.node[54].veinsmobility 	stopTime 	630
scalar RSUExampleScenario.node[54].veinsmobility 	minSpeed 	0
scalar RSUExampleScenario.node[54].veinsmobility 	maxSpeed 	27.756275951127
scalar RSUExampleScenario.node[54].veinsmobility 	totalDistance 	3396.9224644786
scalar RSUExampleScenario.node[54].veinsmobility 	totalCO2Emission 	1331.8476903827
scalar RSUExampleScenario.node[60].nic.phy80211p 	busyTime 	6.5625e-06
scalar RSUExampleScenario.node[60].nic.mac1609_4 	ReceivedUnicastPackets 	0
scalar RSUExampleScenario.node[60].nic.mac1609_4 	ReceivedBroadcasts 	20
scalar RSUExampleScenario.node[60].nic.mac1609_4 	SentPackets 	1
scalar RSUExampleScenario.node[60].nic.mac1609_4 	SNIRLostPackets 	15
scalar RSUExampleScenario.node[60].nic.mac1609_4 	RXTXLostPackets 	1
scalar RSUExampleScenario.node[60].nic.mac1609_4 	TotalLostPackets 	16
scalar RSUExampleScenario.node[60].nic.mac1609_4 	DroppedPacketsInMac 	0
scalar RSUExampleScenario.node[60].nic.mac1609_4 	TooLittleTime 	0
scalar RSUExampleScenario.node[60].nic.mac1609_4 	TimesIntoBackoff 	1
scalar RSUExampleScenario.node[60].nic.mac1609_4 	SlotsBackoff 	3
scalar RSUExampleScenario.node[60].nic.mac1609_4 	NumInternalContention 	0
scalar RSUExampleScenario.node[60].nic.mac1609_4 	totalBusyTime 	0.002881
scalar RSUExampleScenario.node[60].veinsmobility 	startTime 	121
scalar RSUExampleScenario.node[60].veinsmobility 	totalTime 	511
scalar RSUExampleScenario.node[60].veinsmobility 	stopTime 	633
scalar RSUExampleScenario.node[60].veinsmobility 	minSpeed 	0
scalar RSUExampleScenario.node[60].veinsmobility 	maxSpeed 	27.776459001834
scalar RSUExampleScenario.node[60].veinsmobility 	totalDistance 	3406.3394076595
scalar RSUExampleScenario.node[60].veinsmobility 	totalCO2Emission 	1270.2369551971
scalar RSUExampleScenario.node[51].nic.phy80211p 	busyTime 	5.1176470588235e-06
scalar RSUExampleScenario.node[51].nic.mac1609_4 	ReceivedUnicastPackets 	0
scalar RSUExampleScenario.node[51].nic.mac1609_4 	ReceivedBroadcasts 	18
scalar RSUExampleScenario.node[51].nic.mac1609_4 	SentPackets 	1
scalar RSUExampleScenario.node[51].nic.mac1609_4 	SNIRLostPackets 	11
scalar RSUExampleScenario.node[51].nic.mac1609_4 	RXTXLostPackets 	0
scalar RSUExampleScenario.node[51].nic.mac1609_4 	TotalLostPackets 	11
scalar RSUExampleScenario.node[51].nic.mac1609_4 	DroppedPacketsInMac 	0
scalar RSUExampleScenario.node[51].nic.mac1609_4 	TooLittleTime 	0
scalar RSUExampleScenario.node[51].nic.mac1609_4 	TimesIntoBackoff 	1
scalar RSUExampleScenario.node[51].nic.mac1609_4 	SlotsBackoff 	3
scalar RSUExampleScenario.node[51].nic.mac1609_4 	NumInternalContention 	0
scalar RSUExampleScenario.node[51].nic.mac1609_4 	totalBusyTime 	0.002497
scalar RSUExampleScenario.node[51].veinsmobility 	startTime 	101
scalar RSUExampleScenario.node[51].veinsmobility 	totalTime 	543
scalar RSUExampleScenario.node[51].veinsmobility 	stopTime 	645
scalar RSUExampleScenario.node[51].veinsmobility 	minSpeed 	0
scalar RSUExampleScenario.node[51].veinsmobility 	maxSpeed 	27.779795020557
scalar RSUExampleScenario.node[51].veinsmobility 	totalDistance 	3399.5511613083
scalar RSUExampleScenario.node[51].veinsmobility 	totalCO2Emission 	1208.9942635848
scalar RSUExampleScenario.node[52].nic.phy80211p 	busyTime 	4.5882352941176e-06
scalar RSUExampleScenario.node[52].nic.mac1609_4 	ReceivedUnicastPackets 	0
scalar RSUExampleScenario.node[52].nic.mac1609_4 	ReceivedBroadcasts 	17
scalar RSUExampleScenario.node[52].nic.mac1609_4 	SentPackets 	1
scalar RSUExampleScenario.node[52].nic.mac1609_4 	SNIRLostPackets 	9
scalar RSUExampleScenario.node[52].nic.mac1609_4 	RXTXLostPackets 	0
scalar RSUExampleScenario.node[52].nic.mac1609_4 	TotalLostPackets 	9
scalar RSUExampleScenario.node[52].nic.mac1609_4 	DroppedPacketsInMac 	0
scalar RSUExampleScenario.node[52].nic.mac1609_4 	TooLittleTime 	0
scalar RSUExampleScenario.node[52].nic.mac1609_4 	TimesIntoBackoff 	1
scalar RSUExampleScenario.node[52].nic.mac1609_4 	SlotsBackoff 	1
scalar RSUExampleScenario.node[52].nic.mac1609_4 	NumInternalContention 	0
scalar RSUExampleScenario.node[52].nic.mac1609_4 	totalBusyTime 	0.002113
scalar RSUExampleScenario.node[52].veinsmobility 	startTime 	103
scalar RSUExampleScenario.node[52].veinsmobility 	totalTime 	543
scalar RSUExampleScenario.node[52].veinsmobility 	stopTime 	647
scalar RSUExampleScenario.node[52].veinsmobility 	minSpeed 	0
scalar RSUExampleScenario.node[52].veinsmobility 	maxSpeed 	27.753529562959
scalar RSUExampleScenario.node[52].veinsmobility 	totalDistance 	3401.4240938979
scalar RSUExampleScenario.node[52].veinsmobility 	totalCO2Emission 	1318.0756641199
scalar RSUExampleScenario.node[55].nic.phy80211p 	busyTime 	4.6307977736549e-06
scalar RSUExampleScenario.node[55].nic.mac1609_4 	ReceivedUnicastPackets 	0
scalar RSUExampleScenario.node[55].nic.mac1609_4 	ReceivedBroadcasts 	16
scalar RSUExampleScenario.node[55].nic.mac1609_4 	SentPackets 	1
scalar RSUExampleScenario.node[55].nic.mac1609_4 	SNIRLostPackets 	10
scalar RSUExampleScenario.node[55].nic.mac1609_4 	RXTXLostPackets 	0
scalar RSUExampleScenario.node[55].nic.mac1609_4 	TotalLostPackets 	10
scalar RSUExampleScenario.node[55].nic.mac1609_4 	DroppedPacketsInMac 	0
scalar RSUExampleScenario.node[55].nic.mac1609_4 	TooLittleTime 	0
scalar RSUExampleScenario.node[55].nic.mac1609_4 	TimesIntoBackoff 	1
scalar RSUExampleScenario.node[55].nic.mac1609_4 	SlotsBackoff 	6
scalar RSUExampleScenario.node[55].nic.mac1609_4 	NumInternalContention 	0
scalar RSUExampleScenario.node[55].nic.mac1609_4 	totalBusyTime 	0.002113
scalar RSUExampleScenario.node[55].veinsmobility 	startTime 	110
scalar RSUExampleScenario.node[55].veinsmobility 	totalTime 	538
scalar RSUExampleScenario.node[55].veinsmobility 	stopTime 	649
scalar RSUExampleScenario.node[55].veinsmobility 	minSpeed 	0
scalar RSUExampleScenario.node[55].veinsmobility 	maxSpeed 	27.702358603021
scalar RSUExampleScenario.node[55].veinsmobility 	totalDistance 	3399.4910790219
scalar RSUExampleScenario.node[55].veinsmobility 	totalCO2Emission 	1323.1896869584
scalar RSUExampleScenario.node[59].nic.phy80211p 	busyTime 	6.5174311926606e-06
scalar RSUExampleScenario.node[59].nic.mac1609_4 	ReceivedUnicastPackets 	0
scalar RSUExampleScenario.node[59].nic.mac1609_4 	ReceivedBroadcasts 	23
scalar RSUExampleScenario.node[59].nic.mac1609_4 	SentPackets 	1
scalar RSUExampleScenario.node[59].nic.mac1609_4 	SNIRLostPackets 	14
scalar RSUExampleScenario.node[59].nic.mac1609_4 	RXTXLostPackets 	0
scalar RSUExampleScenario.node[59].nic.mac1609_4 	TotalLostPackets 	14
scalar RSUExampleScenario.node[59].nic.mac1609_4 	DroppedPacketsInMac 	0
scalar RSUExampleScenario.node[59].nic.mac1609_4 	TooLittleTime 	0
scalar RSUExampleScenario.node[59].nic.mac1609_4 	TimesIntoBackoff 	2
scalar RSUExampleScenario.node[59].nic.mac1609_4 	SlotsBackoff 	14
scalar RSUExampleScenario.node[59].nic.mac1609_4 	NumInternalContention 	0
scalar RSUExampleScenario.node[59].nic.mac1609_4 	totalBusyTime 	0.003112449787
scalar RSUExampleScenario.node[59].veinsmobility 	startTime 	119
scalar RSUExampleScenario.node[59].veinsmobility 	totalTime 	544
scalar RSUExampleScenario.node[59].veinsmobility 	stopTime 	664
scalar RSUExampleScenario.node[59].veinsmobility 	minSpeed 	0
scalar RSUExampleScenario.node[59].veinsmobility 	maxSpeed 	27.689200061047
scalar RSUExampleScenario.node[59].veinsmobility 	totalDistance 	3406.2283294846
scalar RSUExampleScenario.node[59].veinsmobility 	totalCO2Emission 	1381.3123569194
scalar RSUExampleScenario.node[28].nic.phy80211p 	busyTime 	5.1727416798732e-06
scalar RSUExampleScenario.node[28].nic.mac1609_4 	ReceivedUnicastPackets 	0
scalar RSUExampleScenario.node[28].nic.mac1609_4 	ReceivedBroadcasts 	19
scalar RSUExampleScenario.node[28].nic.mac1609_4 	SentPackets 	1
scalar RSUExampleScenario.node[28].nic.mac1609_4 	SNIRLostPackets 	15
scalar RSUExampleScenario.node[28].nic.mac1609_4 	RXTXLostPackets 	0
scalar RSUExampleScenario.node[28].nic.mac1609_4 	TotalLostPackets 	15
scalar RSUExampleScenario.node[28].nic.mac1609_4 	DroppedPacketsInMac 	0
scalar RSUExampleScenario.node[28].nic.mac1609_4 	TooLittleTime 	0
scalar RSUExampleScenario.node[28].nic.mac1609_4 	TimesIntoBackoff 	2
scalar RSUExampleScenario.node[28].nic.mac1609_4 	SlotsBackoff 	13
scalar RSUExampleScenario.node[28].nic.mac1609_4 	NumInternalContention 	0
scalar RSUExampleScenario.node[28].nic.mac1609_4 	totalBusyTime 	0.002497
scalar RSUExampleScenario.node[28].veinsmobility 	startTime 	51
scalar RSUExampleScenario.node[28].veinsmobility 	totalTime 	630
scalar RSUExampleScenario.node[28].veinsmobility 	stopTime 	682
scalar RSUExampleScenario.node[28].veinsmobility 	minSpeed 	0
scalar RSUExampleScenario.node[28].veinsmobility 	maxSpeed 	16.668697733618
scalar RSUExampleScenario.node[28].veinsmobility 	totalDistance 	3357.447707674
scalar RSUExampleScenario.node[28].veinsmobility 	totalCO2Emission 	1228.5543972897
scalar RSUExampleScenario.node[63].nic.phy80211p 	busyTime 	7.0664272890485e-06
scalar RSUExampleScenario.node[63].nic.mac1609_4 	ReceivedUnicastPackets 	0
scalar RSUExampleScenario.node[63].nic.mac1609_4 	ReceivedBroadcasts 	20
scalar RSUExampleScenario.node[63].nic.mac1609_4 	SentPackets 	1
scalar RSUExampleScenario.node[63].nic.mac1609_4 	SNIRLostPackets 	21
scalar RSUExampleScenario.node[63].nic.mac1609_4 	RXTXLostPackets 	0
scalar RSUExampleScenario.node[63].nic.mac1609_4 	TotalLostPackets 	21
scalar RSUExampleScenario.node[63].nic.mac1609_4 	DroppedPacketsInMac 	0
scalar RSUExampleScenario.node[63].nic.mac1609_4 	TooLittleTime 	0
scalar RSUExampleScenario.node[63].nic.mac1609_4 	TimesIntoBackoff 	2
scalar RSUExampleScenario.node[63].nic.mac1609_4 	SlotsBackoff 	6
scalar RSUExampleScenario.node[63].nic.mac1609_4 	NumInternalContention 	0
scalar RSUExampleScenario.node[63].nic.mac1609_4 	totalBusyTime 	0.003169
scalar RSUExampleScenario.node[63].veinsmobility 	startTime 	128
scalar RSUExampleScenario.node[63].veinsmobility 	totalTime 	556
scalar RSUExampleScenario.node[63].veinsmobility 	stopTime 	685
scalar RSUExampleScenario.node[63].veinsmobility 	minSpeed 	0
scalar RSUExampleScenario.node[63].veinsmobility 	maxSpeed 	27.778288308047
scalar RSUExampleScenario.node[63].veinsmobility 	totalDistance 	3409.0182786069
scalar RSUExampleScenario.node[63].veinsmobility 	totalCO2Emission 	1249.7011657025
scalar RSUExampleScenario.node[66].nic.phy80211p 	busyTime 	7.1304347826087e-06
scalar RSUExampleScenario.node[66].nic.mac1609_4 	ReceivedUnicastPackets 	0
scalar RSUExampleScenario.node[66].nic.mac1609_4 	ReceivedBroadcasts 	14
scalar RSUExampleScenario.node[66].nic.mac1609_4 	SentPackets 	1
scalar RSUExampleScenario.node[66].nic.mac1609_4 	SNIRLostPackets 	27
scalar RSUExampleScenario.node[66].nic.mac1609_4 	RXTXLostPackets 	0
scalar RSUExampleScenario.node[66].nic.mac1609_4 	TotalLostPackets 	27
scalar RSUExampleScenario.node[66].nic.mac1609_4 	DroppedPacketsInMac 	0
scalar RSUExampleScenario.node[66].nic.mac1609_4 	TooLittleTime 	0
scalar RSUExampleScenario.node[66].nic.mac1609_4 	TimesIntoBackoff 	1
scalar RSUExampleScenario.node[66].nic.mac1609_4 	SlotsBackoff 	5
scalar RSUExampleScenario.node[66].nic.mac1609_4 	NumInternalContention 	0
scalar RSUExampleScenario.node[66].nic.mac1609_4 	totalBusyTime 	0.002593
scalar RSUExampleScenario.node[66].veinsmobility 	startTime 	135
scalar RSUExampleScenario.node[66].veinsmobility 	totalTime 	551
scalar RSUExampleScenario.node[66].veinsmobility 	stopTime 	687
scalar RSUExampleScenario.node[66].veinsmobility 	minSpeed 	0
scalar RSUExampleScenario.node[66].veinsmobility 	maxSpeed 	27.773419559719
scalar RSUExampleScenario.node[66].veinsmobility 	totalDistance 	3404.3873039298
scalar RSUExampleScenario.node[66].veinsmobility 	totalCO2Emission 	1229.3996812201
scalar RSUExampleScenario.node[61].nic.phy80211p 	busyTime 	5.2672566371681e-06
scalar RSUExampleScenario.node[61].nic.mac1609_4 	ReceivedUnicastPackets 	0
scalar RSUExampleScenario.node[61].nic.mac1609_4 	ReceivedBroadcasts 	15
scalar RSUExampleScenario.node[61].nic.mac1609_4 	SentPackets 	1
scalar RSUExampleScenario.node[61].nic.mac1609_4 	SNIRLostPackets 	16
scalar RSUExampleScenario.node[61].nic.mac1609_4 	RXTXLostPackets 	0
scalar RSUExampleScenario.node[61].nic.mac1609_4 	TotalLostPackets 	16
scalar RSUExampleScenario.node[61].nic.mac1609_4 	DroppedPacketsInMac 	0
scalar RSUExampleScenario.node[61].nic.mac1609_4 	TooLittleTime 	0
scalar RSUExampleScenario.node[61].nic.mac1609_4 	TimesIntoBackoff 	1
scalar RSUExampleScenario.node[61].nic.mac1609_4 	SlotsBackoff 	6
scalar RSUExampleScenario.node[61].nic.mac1609_4 	NumInternalContention 	0
scalar RSUExampleScenario.node[61].nic.mac1609_4 	totalBusyTime 	0.002305158314
scalar RSUExampleScenario.node[61].veinsmobility 	startTime 	124
scalar RSUExampleScenario.node[61].veinsmobility 	totalTime 	564
scalar RSUExampleScenario.node[61].veinsmobility 	stopTime 	689
scalar RSUExampleScenario.node[61].veinsmobility 	minSpeed 	0
scalar RSUExampleScenario.node[61].veinsmobility 	maxSpeed 	27.74841184482
scalar RSUExampleScenario.node[61].veinsmobility 	totalDistance 	3403.0432949734
scalar RSUExampleScenario.node[61].veinsmobility 	totalCO2Emission 	1296.5967211053
scalar RSUExampleScenario.node[31].nic.phy80211p 	busyTime 	4.8301886792453e-06
scalar RSUExampleScenario.node[31].nic.mac1609_4 	ReceivedUnicastPackets 	0
scalar RSUExampleScenario.node[31].nic.mac1609_4 	ReceivedBroadcasts 	20
scalar RSUExampleScenario.node[31].nic.mac1609_4 	SentPackets 	1
scalar RSUExampleScenario.node[31].nic.mac1609_4 	SNIRLostPackets 	12
scalar RSUExampleScenario.node[31].nic.mac1609_4 	RXTXLostPackets 	0
scalar RSUExampleScenario.node[31].nic.mac1609_4 	TotalLostPackets 	12
scalar RSUExampleScenario.node[31].nic.mac1609_4 	DroppedPacketsInMac 	0
scalar RSUExampleScenario.node[31].nic.mac1609_4 	TooLittleTime 	0
scalar RSUExampleScenario.node[31].nic.mac1609_4 	TimesIntoBackoff 	1
scalar RSUExampleScenario.node[31].nic.mac1609_4 	SlotsBackoff 	0
scalar RSUExampleScenario.node[31].nic.mac1609_4 	NumInternalContention 	0
scalar RSUExampleScenario.node[31].nic.mac1609_4 	totalBusyTime 	0.002574947871
scalar RSUExampleScenario.node[31].veinsmobility 	startTime 	56
scalar RSUExampleScenario.node[31].veinsmobility 	totalTime 	635
scalar RSUExampleScenario.node[31].veinsmobility 	stopTime 	692
scalar RSUExampleScenario.node[31].veinsmobility 	minSpeed 	0
scalar RSUExampleScenario.node[31].veinsmobility 	maxSpeed 	16.663733680779
scalar RSUExampleScenario.node[31].veinsmobility 	totalDistance 	3256.4666570745
scalar RSUExampleScenario.node[31].veinsmobility 	totalCO2Emission 	1231.7567719517
scalar RSUExampleScenario.node[30].nic.phy80211p 	busyTime 	4.9577464788732e-06
scalar RSUExampleScenario.node[30].nic.mac1609_4 	ReceivedUnicastPackets 	0
scalar RSUExampleScenario.node[30].nic.mac1609_4 	ReceivedBroadcasts 	20
scalar RSUExampleScenario.node[30].nic.mac1609_4 	SentPackets 	1
scalar RSUExampleScenario.node[30].nic.mac1609_4 	SNIRLostPackets 	13
scalar RSUExampleScenario.node[30].nic.mac1609_4 	RXTXLostPackets 	0
scalar RSUExampleScenario.node[30].nic.mac1609_4 	TotalLostPackets 	13
scalar RSUExampleScenario.node[30].nic.mac1609_4 	DroppedPacketsInMac 	0
scalar RSUExampleScenario.node[30].nic.mac1609_4 	TooLittleTime 	0
scalar RSUExampleScenario.node[30].nic.mac1609_4 	TimesIntoBackoff 	1
scalar RSUExampleScenario.node[30].nic.mac1609_4 	SlotsBackoff 	3
scalar RSUExampleScenario.node[30].nic.mac1609_4 	NumInternalContention 	0
scalar RSUExampleScenario.node[30].nic.mac1609_4 	totalBusyTime 	0.002670985721
scalar RSUExampleScenario.node[30].veinsmobility 	startTime 	55
scalar RSUExampleScenario.node[30].veinsmobility 	totalTime 	638
scalar RSUExampleScenario.node[30].veinsmobility 	stopTime 	694
scalar RSUExampleScenario.node[30].veinsmobility 	minSpeed 	0
scalar RSUExampleScenario.node[30].veinsmobility 	maxSpeed 	16.658774357205
scalar RSUExampleScenario.node[30].veinsmobility 	totalDistance 	3255.0038267195
scalar RSUExampleScenario.node[30].veinsmobility 	totalCO2Emission 	1177.3926577468
scalar RSUExampleScenario.node[32].nic.phy80211p 	busyTime 	4.0626959247649e-06
scalar RSUExampleScenario.node[32].nic.mac1609_4 	ReceivedUnicastPackets 	0
scalar RSUExampleScenario.node[32].nic.mac1609_4 	ReceivedBroadcasts 	19
scalar RSUExampleScenario.node[32].nic.mac1609_4 	SentPackets 	1
scalar RSUExampleScenario.node[32].nic.mac1609_4 	SNIRLostPackets 	8
scalar RSUExampleScenario.node[32].nic.mac1609_4 	RXTXLostPackets 	0
scalar RSUExampleScenario.node[32].nic.mac1609_4 	TotalLostPackets 	8
scalar RSUExampleScenario.node[32].nic.mac1609_4 	DroppedPacketsInMac 	0
scalar RSUExampleScenario.node[32].nic.mac1609_4 	TooLittleTime 	0
scalar RSUExampleScenario.node[32].nic.mac1609_4 	TimesIntoBackoff 	2
scalar RSUExampleScenario.node[32].nic.mac1609_4 	SlotsBackoff 	2
scalar RSUExampleScenario.node[32].nic.mac1609_4 	NumInternalContention 	0
scalar RSUExampleScenario.node[32].nic.mac1609_4 	totalBusyTime 	0.002209
scalar RSUExampleScenario.node[32].veinsmobility 	startTime 	58
scalar RSUExampleScenario.node[32].veinsmobility 	totalTime 	637
scalar RSUExampleScenario.node[32].veinsmobility 	stopTime 	696
scalar RSUExampleScenario.node[32].veinsmobility 	minSpeed 	0
scalar RSUExampleScenario.node[32].veinsmobility 	maxSpeed 	16.638068638807
scalar RSUExampleScenario.node[32].veinsmobility 	totalDistance 	3249.1198737333
scalar RSUExampleScenario.node[32].veinsmobility 	totalCO2Emission 	1154.9646641203
scalar RSUExampleScenario.node[56].nic.phy80211p 	busyTime 	4.252129471891e-06
scalar RSUExampleScenario.node[56].nic.mac1609_4 	ReceivedUnicastPackets 	0
scalar RSUExampleScenario.node[56].nic.mac1609_4 	ReceivedBroadcasts 	18
scalar RSUExampleScenario.node[56].nic.mac1609_4 	SentPackets 	1
scalar RSUExampleScenario.node[56].nic.mac1609_4 	SNIRLostPackets 	8
scalar RSUExampleScenario.node[56].nic.mac1609_4 	RXTXLostPackets 	0
scalar RSUExampleScenario.node[56].nic.mac1609_4 	TotalLostPackets 	8
scalar RSUExampleScenario.node[56].nic.mac1609_4 	DroppedPacketsInMac 	0
scalar RSUExampleScenario.node[56].nic.mac1609_4 	TooLittleTime 	0
scalar RSUExampleScenario.node[56].nic.mac1609_4 	TimesIntoBackoff 	2
scalar RSUExampleScenario.node[56].nic.mac1609_4 	SlotsBackoff 	10
scalar RSUExampleScenario.node[56].nic.mac1609_4 	NumInternalContention 	0
scalar RSUExampleScenario.node[56].nic.mac1609_4 	totalBusyTime 	0.002113
scalar RSUExampleScenario.node[56].veinsmobility 	startTime 	112
scalar RSUExampleScenario.node[56].veinsmobility 	totalTime 	586
scalar RSUExampleScenario.node[56].veinsmobility 	stopTime 	699
scalar RSUExampleScenario.node[56].veinsmobility 	minSpeed 	0
scalar RSUExampleScenario.node[56].veinsmobility 	maxSpeed 	27.767617241191
scalar RSUExampleScenario.node[56].veinsmobility 	totalDistance 	3405.7162064313
scalar RSUExampleScenario.node[56].veinsmobility 	totalCO2Emission 	1359.1742224076
scalar RSUExampleScenario.node[34].nic.phy80211p 	busyTime 	3.6056338028169e-06
scalar RSUExampleScenario.node[34].nic.mac1609_4 	ReceivedUnicastPackets 	0
scalar RSUExampleScenario.node[34].nic.mac1609_4 	ReceivedBroadcasts 	20
scalar RSUExampleScenario.node[34].nic.mac1609_4 	SentPackets 	1
scalar RSUExampleScenario.node[34].nic.mac1609_4 	SNIRLostPackets 	4
scalar RSUExampleScenario.node[34].nic.mac1609_4 	RXTXLostPackets 	3
scalar RSUExampleScenario.node[34].nic.mac1609_4 	TotalLostPackets 	7
scalar RSUExampleScenario.node[34].nic.mac1609_4 	DroppedPacketsInMac 	0
scalar RSUExampleScenario.node[34].nic.mac1609_4 	TooLittleTime 	0
scalar RSUExampleScenario.node[34].nic.mac1609_4 	TimesIntoBackoff 	2
scalar RSUExampleScenario.node[34].nic.mac1609_4 	SlotsBackoff 	8
scalar RSUExampleScenario.node[34].nic.mac1609_4 	NumInternalContention 	0
scalar RSUExampleScenario.node[34].nic.mac1609_4 	totalBusyTime 	0.002209
scalar RSUExampleScenario.node[34].veinsmobility 	startTime 	62
scalar RSUExampleScenario.node[34].veinsmobility 	totalTime 	638
scalar RSUExampleScenario.node[34].veinsmobility 	stopTime 	701
scalar RSUExampleScenario.node[34].veinsmobility 	minSpeed 	0
scalar RSUExampleScenario.node[34].veinsmobility 	maxSpeed 	16.66711418896
scalar RSUExampleScenario.node[34].veinsmobility 	totalDistance 	3252.5869824798
scalar RSUExampleScenario.node[34].veinsmobility 	totalCO2Emission 	1146.2072827395
scalar RSUExampleScenario.node[35].nic.phy80211p 	busyTime 	3.906103286385e-06
scalar RSUExampleScenario.node[35].nic.mac1609_4 	ReceivedUnicastPackets 	0
scalar RSUExampleScenario.node[35].nic.mac1609_4 	ReceivedBroadcasts 	18
scalar RSUExampleScenario.node[35].nic.mac1609_4 	SentPackets 	1
scalar RSUExampleScenario.node[35].nic.mac1609_4 	SNIRLostPackets 	8
scalar RSUExampleScenario.node[35].nic.mac1609_4 	RXTXLostPackets 	0
scalar RSUExampleScenario.node[35].nic.mac1609_4 	TotalLostPackets 	8
scalar RSUExampleScenario.node[35].nic.mac1609_4 	DroppedPacketsInMac 	0
scalar RSUExampleScenario.node[35].nic.mac1609_4 	TooLittleTime 	0
scalar RSUExampleScenario.node[35].nic.mac1609_4 	TimesIntoBackoff 	2
scalar RSUExampleScenario.node[35].nic.mac1609_4 	SlotsBackoff 	13
scalar RSUExampleScenario.node[35].nic.mac1609_4 	NumInternalContention 	0
scalar RSUExampleScenario.node[35].nic.mac1609_4 	totalBusyTime 	0.002113
scalar RSUExampleScenario.node[35].veinsmobility 	startTime 	64
scalar RSUExampleScenario.node[35].veinsmobility 	totalTime 	638
scalar RSUExampleScenario.node[35].veinsmobility 	stopTime 	703
scalar RSUExampleScenario.node[35].veinsmobility 	minSpeed 	0
scalar RSUExampleScenario.node[35].veinsmobility 	maxSpeed 	16.657620351464
scalar RSUExampleScenario.node[35].veinsmobility 	totalDistance 	3247.9520609004
scalar RSUExampleScenario.node[35].veinsmobility 	totalCO2Emission 	1145.2353972317
scalar RSUExampleScenario.node[36].nic.phy80211p 	busyTime 	3.9e-06
scalar RSUExampleScenario.node[36].nic.mac1609_4 	ReceivedUnicastPackets 	0
scalar RSUExampleScenario.node[36].nic.mac1609_4 	ReceivedBroadcasts 	18
scalar RSUExampleScenario.node[36].nic.mac1609_4 	SentPackets 	1
scalar RSUExampleScenario.node[36].nic.mac1609_4 	SNIRLostPackets 	8
scalar RSUExampleScenario.node[36].nic.mac1609_4 	RXTXLostPackets 	0
scalar RSUExampleScenario.node[36].nic.mac1609_4 	TotalLostPackets 	8
scalar RSUExampleScenario.node[36].nic.mac1609_4 	DroppedPacketsInMac 	0
scalar RSUExampleScenario.node[36].nic.mac1609_4 	TooLittleTime 	0
scalar RSUExampleScenario.node[36].nic.mac1609_4 	TimesIntoBackoff 	1
scalar RSUExampleScenario.node[36].nic.mac1609_4 	SlotsBackoff 	0
scalar RSUExampleScenario.node[36].nic.mac1609_4 	NumInternalContention 	0
scalar RSUExampleScenario.node[36].nic.mac1609_4 	totalBusyTime 	0.00211320391
scalar RSUExampleScenario.node[36].veinsmobility 	startTime 	66
scalar RSUExampleScenario.node[36].veinsmobility 	totalTime 	639
scalar RSUExampleScenario.node[36].veinsmobility 	stopTime 	706
scalar RSUExampleScenario.node[36].veinsmobility 	minSpeed 	0
scalar RSUExampleScenario.node[36].veinsmobility 	maxSpeed 	16.66903800766
scalar RSUExampleScenario.node[36].veinsmobility 	totalDistance 	3254.6879668836
scalar RSUExampleScenario.node[36].veinsmobility 	totalCO2Emission 	1163.4553553973
scalar RSUExampleScenario.node[53].nic.phy80211p 	busyTime 	6.3787375415282e-06
scalar RSUExampleScenario.node[53].nic.mac1609_4 	ReceivedUnicastPackets 	0
scalar RSUExampleScenario.node[53].nic.mac1609_4 	ReceivedBroadcasts 	25
scalar RSUExampleScenario.node[53].nic.mac1609_4 	SentPackets 	1
scalar RSUExampleScenario.node[53].nic.mac1609_4 	SNIRLostPackets 	15
scalar RSUExampleScenario.node[53].nic.mac1609_4 	RXTXLostPackets 	0
scalar RSUExampleScenario.node[53].nic.mac1609_4 	TotalLostPackets 	15
scalar RSUExampleScenario.node[53].nic.mac1609_4 	DroppedPacketsInMac 	0
scalar RSUExampleScenario.node[53].nic.mac1609_4 	TooLittleTime 	0
scalar RSUExampleScenario.node[53].nic.mac1609_4 	TimesIntoBackoff 	2
scalar RSUExampleScenario.node[53].nic.mac1609_4 	SlotsBackoff 	1
scalar RSUExampleScenario.node[53].nic.mac1609_4 	NumInternalContention 	0
scalar RSUExampleScenario.node[53].nic.mac1609_4 	totalBusyTime 	0.003265
scalar RSUExampleScenario.node[53].veinsmobility 	startTime 	106
scalar RSUExampleScenario.node[53].veinsmobility 	totalTime 	601
scalar RSUExampleScenario.node[53].veinsmobility 	stopTime 	708
scalar RSUExampleScenario.node[53].veinsmobility 	minSpeed 	0
scalar RSUExampleScenario.node[53].veinsmobility 	maxSpeed 	27.725026729889
scalar RSUExampleScenario.node[53].veinsmobility 	totalDistance 	3398.4305532209
scalar RSUExampleScenario.node[53].veinsmobility 	totalCO2Emission 	1300.6415020707
scalar RSUExampleScenario.node[37].nic.phy80211p 	busyTime 	3.8878504672897e-06
scalar RSUExampleScenario.node[37].nic.mac1609_4 	ReceivedUnicastPackets 	0
scalar RSUExampleScenario.node[37].nic.mac1609_4 	ReceivedBroadcasts 	18
scalar RSUExampleScenario.node[37].nic.mac1609_4 	SentPackets 	1
scalar RSUExampleScenario.node[37].nic.mac1609_4 	SNIRLostPackets 	8
scalar RSUExampleScenario.node[37].nic.mac1609_4 	RXTXLostPackets 	0
scalar RSUExampleScenario.node[37].nic.mac1609_4 	TotalLostPackets 	8
scalar RSUExampleScenario.node[37].nic.mac1609_4 	DroppedPacketsInMac 	0
scalar RSUExampleScenario.node[37].nic.mac1609_4 	TooLittleTime 	0
scalar RSUExampleScenario.node[37].nic.mac1609_4 	TimesIntoBackoff 	1
scalar RSUExampleScenario.node[37].nic.mac1609_4 	SlotsBackoff 	5
scalar RSUExampleScenario.node[37].nic.mac1609_4 	NumInternalContention 	0
scalar RSUExampleScenario.node[37].nic.mac1609_4 	totalBusyTime 	0.002113145613
scalar RSUExampleScenario.node[37].veinsmobility 	startTime 	68
scalar RSUExampleScenario.node[37].veinsmobility 	totalTime 	641
scalar RSUExampleScenario.node[37].veinsmobility 	stopTime 	710
scalar RSUExampleScenario.node[37].veinsmobility 	minSpeed 	0
scalar RSUExampleScenario.node[37].veinsmobility 	maxSpeed 	16.665396585083
scalar RSUExampleScenario.node[37].veinsmobility 	totalDistance 	3248.9850753697
scalar RSUExampleScenario.node[37].veinsmobility 	totalCO2Emission 	1156.9805472116
scalar RSUExampleScenario.node[62].nic.phy80211p 	busyTime 	6.2146507666099e-06
scalar RSUExampleScenario.node[62].nic.mac1609_4 	ReceivedUnicastPackets 	0
scalar RSUExampleScenario.node[62].nic.mac1609_4 	ReceivedBroadcasts 	19
scalar RSUExampleScenario.node[62].nic.mac1609_4 	SentPackets 	1
scalar RSUExampleScenario.node[62].nic.mac1609_4 	SNIRLostPackets 	19
scalar RSUExampleScenario.node[62].nic.mac1609_4 	RXTXLostPackets 	1
scalar RSUExampleScenario.node[62].nic.mac1609_4 	TotalLostPackets 	20
scalar RSUExampleScenario.node[62].nic.mac1609_4 	DroppedPacketsInMac 	0
scalar RSUExampleScenario.node[62].nic.mac1609_4 	TooLittleTime 	0
scalar RSUExampleScenario.node[62].nic.mac1609_4 	TimesIntoBackoff 	2
scalar RSUExampleScenario.node[62].nic.mac1609_4 	SlotsBackoff 	10
scalar RSUExampleScenario.node[62].nic.mac1609_4 	NumInternalContention 	0
scalar RSUExampleScenario.node[62].nic.mac1609_4 	totalBusyTime 	0.002977
scalar RSUExampleScenario.node[62].veinsmobility 	startTime 	126
scalar RSUExampleScenario.node[62].veinsmobility 	totalTime 	586
scalar RSUExampleScenario.node[62].veinsmobility 	stopTime 	713
scalar RSUExampleScenario.node[62].veinsmobility 	minSpeed 	0
scalar RSUExampleScenario.node[62].veinsmobility 	maxSpeed 	27.766793941632
scalar RSUExampleScenario.node[62].veinsmobility 	totalDistance 	3411.4930399413
scalar RSUExampleScenario.node[62].veinsmobility 	totalCO2Emission 	1331.7698282614
scalar RSUExampleScenario.node[73].nic.phy80211p 	busyTime 	8.1702127659574e-06
scalar RSUExampleScenario.node[73].nic.mac1609_4 	ReceivedUnicastPackets 	0
scalar RSUExampleScenario.node[73].nic.mac1609_4 	ReceivedBroadcasts 	32
scalar RSUExampleScenario.node[73].nic.mac1609_4 	SentPackets 	1
scalar RSUExampleScenario.node[73].nic.mac1609_4 	SNIRLostPackets 	16
scalar RSUExampleScenario.node[73].nic.mac1609_4 	RXTXLostPackets 	1
scalar RSUExampleScenario.node[73].nic.mac1609_4 	TotalLostPackets 	17
scalar RSUExampleScenario.node[73].nic.mac1609_4 	DroppedPacketsInMac 	0
scalar RSUExampleScenario.node[73].nic.mac1609_4 	TooLittleTime 	0
scalar RSUExampleScenario.node[73].nic.mac1609_4 	TimesIntoBackoff 	2
scalar RSUExampleScenario.node[73].nic.mac1609_4 	SlotsBackoff 	9
scalar RSUExampleScenario.node[73].nic.mac1609_4 	NumInternalContention 	0
scalar RSUExampleScenario.node[73].nic.mac1609_4 	totalBusyTime 	0.004033195574
scalar RSUExampleScenario.node[73].veinsmobility 	startTime 	151
scalar RSUExampleScenario.node[73].veinsmobility 	totalTime 	563
scalar RSUExampleScenario.node[73].veinsmobility 	stopTime 	715
scalar RSUExampleScenario.node[73].veinsmobility 	minSpeed 	0
scalar RSUExampleScenario.node[73].veinsmobility 	maxSpeed 	27.778317611525
scalar RSUExampleScenario.node[73].veinsmobility 	totalDistance 	3404.2622197077
scalar RSUExampleScenario.node[73].veinsmobility 	totalCO2Emission 	1215.1718469883
scalar RSUExampleScenario.node[38].nic.phy80211p 	busyTime 	3.8578052550232e-06
scalar RSUExampleScenario.node[38].nic.mac1609_4 	ReceivedUnicastPackets 	0
scalar RSUExampleScenario.node[38].nic.mac1609_4 	ReceivedBroadcasts 	18
scalar RSUExampleScenario.node[38].nic.mac1609_4 	SentPackets 	1
scalar RSUExampleScenario.node[38].nic.mac1609_4 	SNIRLostPackets 	8
scalar RSUExampleScenario.node[38].nic.mac1609_4 	RXTXLostPackets 	0
scalar RSUExampleScenario.node[38].nic.mac1609_4 	TotalLostPackets 	8
scalar RSUExampleScenario.node[38].nic.mac1609_4 	DroppedPacketsInMac 	0
scalar RSUExampleScenario.node[38].nic.mac1609_4 	TooLittleTime 	0
scalar RSUExampleScenario.node[38].nic.mac1609_4 	TimesIntoBackoff 	1
scalar RSUExampleScenario.node[38].nic.mac1609_4 	SlotsBackoff 	0
scalar RSUExampleScenario.node[38].nic.mac1609_4 	NumInternalContention 	0
scalar RSUExampleScenario.node[38].nic.mac1609_4 	totalBusyTime 	0.002113088323
scalar RSUExampleScenario.node[38].veinsmobility 	startTime 	70
scalar RSUExampleScenario.node[38].veinsmobility 	totalTime 	646
scalar RSUExampleScenario.node[38].veinsmobility 	stopTime 	717
scalar RSUExampleScenario.node[38].veinsmobility 	minSpeed 	0
scalar RSUExampleScenario.node[38].veinsmobility 	maxSpeed 	16.658655162025
scalar RSUExampleScenario.node[38].veinsmobility 	totalDistance 	3249.1903940772
scalar RSUExampleScenario.node[38].veinsmobility 	totalCO2Emission 	1154.8864534826
scalar RSUExampleScenario.node[65].nic.phy80211p 	busyTime 	6.3781942078365e-06
scalar RSUExampleScenario.node[65].nic.mac1609_4 	ReceivedUnicastPackets 	0
scalar RSUExampleScenario.node[65].nic.mac1609_4 	ReceivedBroadcasts 	14
scalar RSUExampleScenario.node[65].nic.mac1609_4 	SentPackets 	1
scalar RSUExampleScenario.node[65].nic.mac1609_4 	SNIRLostPackets 	25
scalar RSUExampleScenario.node[65].nic.mac1609_4 	RXTXLostPackets 	0
scalar RSUExampleScenario.node[65].nic.mac1609_4 	TotalLostPackets 	25
scalar RSUExampleScenario.node[65].nic.mac1609_4 	DroppedPacketsInMac 	0
scalar RSUExampleScenario.node[65].nic.mac1609_4 	TooLittleTime 	0
scalar RSUExampleScenario.node[65].nic.mac1609_4 	TimesIntoBackoff 	2
scalar RSUExampleScenario.node[65].nic.mac1609_4 	SlotsBackoff 	9
scalar RSUExampleScenario.node[65].nic.mac1609_4 	NumInternalContention 	0
scalar RSUExampleScenario.node[65].nic.mac1609_4 	totalBusyTime 	0.002497148941
scalar RSUExampleScenario.node[65].veinsmobility 	startTime 	133
scalar RSUExampleScenario.node[65].veinsmobility 	totalTime 	586
scalar RSUExampleScenario.node[65].veinsmobility 	stopTime 	720
scalar RSUExampleScenario.node[65].veinsmobility 	minSpeed 	0
scalar RSUExampleScenario.node[65].veinsmobility 	maxSpeed 	27.764888772899
scalar RSUExampleScenario.node[65].veinsmobility 	totalDistance 	3411.6698538271
scalar RSUExampleScenario.node[65].veinsmobility 	totalCO2Emission 	1285.73823526
scalar RSUExampleScenario.node[68].nic.phy80211p 	busyTime 	7.4226804123711e-06
scalar RSUExampleScenario.node[68].nic.mac1609_4 	ReceivedUnicastPackets 	0
scalar RSUExampleScenario.node[68].nic.mac1609_4 	ReceivedBroadcasts 	20
scalar RSUExampleScenario.node[68].nic.mac1609_4 	SentPackets 	1
scalar RSUExampleScenario.node[68].nic.mac1609_4 	SNIRLostPackets 	25
scalar RSUExampleScenario.node[68].nic.mac1609_4 	RXTXLostPackets 	1
scalar RSUExampleScenario.node[68].nic.mac1609_4 	TotalLostPackets 	26
scalar RSUExampleScenario.node[68].nic.mac1609_4 	DroppedPacketsInMac 	0
scalar RSUExampleScenario.node[68].nic.mac1609_4 	TooLittleTime 	0
scalar RSUExampleScenario.node[68].nic.mac1609_4 	TimesIntoBackoff 	2
scalar RSUExampleScenario.node[68].nic.mac1609_4 	SlotsBackoff 	7
scalar RSUExampleScenario.node[68].nic.mac1609_4 	NumInternalContention 	0
scalar RSUExampleScenario.node[68].nic.mac1609_4 	totalBusyTime 	0.003073011362
scalar RSUExampleScenario.node[68].veinsmobility 	startTime 	140
scalar RSUExampleScenario.node[68].veinsmobility 	totalTime 	581
scalar RSUExampleScenario.node[68].veinsmobility 	stopTime 	722
scalar RSUExampleScenario.node[68].veinsmobility 	minSpeed 	0
scalar RSUExampleScenario.node[68].veinsmobility 	maxSpeed 	27.751017435724
scalar RSUExampleScenario.node[68].veinsmobility 	totalDistance 	3404.1113163838
scalar RSUExampleScenario.node[68].veinsmobility 	totalCO2Emission 	1217.7490006597
scalar RSUExampleScenario.node[64].nic.phy80211p 	busyTime 	5.3423271500843e-06
scalar RSUExampleScenario.node[64].nic.mac1609_4 	ReceivedUnicastPackets 	0
scalar RSUExampleScenario.node[64].nic.mac1609_4 	ReceivedBroadcasts 	17
scalar RSUExampleScenario.node[64].nic.mac1609_4 	SentPackets 	1
scalar RSUExampleScenario.node[64].nic.mac1609_4 	SNIRLostPackets 	16
scalar RSUExampleScenario.node[64].nic.mac1609_4 	RXTXLostPackets 	1
scalar RSUExampleScenario.node[64].nic.mac1609_4 	TotalLostPackets 	17
scalar RSUExampleScenario.node[64].nic.mac1609_4 	DroppedPacketsInMac 	0
scalar RSUExampleScenario.node[64].nic.mac1609_4 	TooLittleTime 	0
scalar RSUExampleScenario.node[64].nic.mac1609_4 	TimesIntoBackoff 	1
scalar RSUExampleScenario.node[64].nic.mac1609_4 	SlotsBackoff 	0
scalar RSUExampleScenario.node[64].nic.mac1609_4 	NumInternalContention 	0
scalar RSUExampleScenario.node[64].nic.mac1609_4 	totalBusyTime 	0.002401
scalar RSUExampleScenario.node[64].veinsmobility 	startTime 	131
scalar RSUExampleScenario.node[64].veinsmobility 	totalTime 	592
scalar RSUExampleScenario.node[64].veinsmobility 	stopTime 	724
scalar RSUExampleScenario.node[64].veinsmobility 	minSpeed 	0
scalar RSUExampleScenario.node[64].veinsmobility 	maxSpeed 	27.767017597426
scalar RSUExampleScenario.node[64].veinsmobility 	totalDistance 	3399.5253028747
scalar RSUExampleScenario.node[64].veinsmobility 	totalCO2Emission 	1274.9916739694
scalar RSUExampleScenario.node[79].nic.phy80211p 	busyTime 	8.1269841269841e-06
scalar RSUExampleScenario.node[79].nic.mac1609_4 	ReceivedUnicastPackets 	0
scalar RSUExampleScenario.node[79].nic.mac1609_4 	ReceivedBroadcasts 	33
scalar RSUExampleScenario.node[79].nic.mac1609_4 	SentPackets 	1
scalar RSUExampleScenario.node[79].nic.mac1609_4 	SNIRLostPackets 	15
scalar RSUExampleScenario.node[79].nic.mac1609_4 	RXTXLostPackets 	0
scalar RSUExampleScenario.node[79].nic.mac1609_4 	TotalLostPackets 	15
scalar RSUExampleScenario.node[79].nic.mac1609_4 	DroppedPacketsInMac 	0
scalar RSUExampleScenario.node[79].nic.mac1609_4 	TooLittleTime 	0
scalar RSUExampleScenario.node[79].nic.mac1609_4 	TimesIntoBackoff 	1
scalar RSUExampleScenario.node[79].nic.mac1609_4 	SlotsBackoff 	0
scalar RSUExampleScenario.node[79].nic.mac1609_4 	NumInternalContention 	0
scalar RSUExampleScenario.node[79].nic.mac1609_4 	totalBusyTime 	0.003937
scalar RSUExampleScenario.node[79].veinsmobility 	startTime 	165
scalar RSUExampleScenario.node[79].veinsmobility 	totalTime 	566
scalar RSUExampleScenario.node[79].veinsmobility 	stopTime 	732
scalar RSUExampleScenario.node[79].veinsmobility 	minSpeed 	0
scalar RSUExampleScenario.node[79].veinsmobility 	maxSpeed 	27.749028480574
scalar RSUExampleScenario.node[79].veinsmobility 	totalDistance 	3402.0499815971
scalar RSUExampleScenario.node[79].veinsmobility 	totalCO2Emission 	1238.7547419536
scalar RSUExampleScenario.node[40].nic.phy80211p 	busyTime 	3.4856278366112e-06
scalar RSUExampleScenario.node[40].nic.mac1609_4 	ReceivedUnicastPackets 	0
scalar RSUExampleScenario.node[40].nic.mac1609_4 	ReceivedBroadcasts 	19
scalar RSUExampleScenario.node[40].nic.mac1609_4 	SentPackets 	1
scalar RSUExampleScenario.node[40].nic.mac1609_4 	SNIRLostPackets 	5
scalar RSUExampleScenario.node[40].nic.mac1609_4 	RXTXLostPackets 	3
scalar RSUExampleScenario.node[40].nic.mac1609_4 	TotalLostPackets 	8
scalar RSUExampleScenario.node[40].nic.mac1609_4 	DroppedPacketsInMac 	0
scalar RSUExampleScenario.node[40].nic.mac1609_4 	TooLittleTime 	0
scalar RSUExampleScenario.node[40].nic.mac1609_4 	TimesIntoBackoff 	2
scalar RSUExampleScenario.node[40].nic.mac1609_4 	SlotsBackoff 	13
scalar RSUExampleScenario.node[40].nic.mac1609_4 	NumInternalContention 	0
scalar RSUExampleScenario.node[40].nic.mac1609_4 	totalBusyTime 	0.002113014381
scalar RSUExampleScenario.node[40].veinsmobility 	startTime 	74
scalar RSUExampleScenario.node[40].veinsmobility 	totalTime 	660
scalar RSUExampleScenario.node[40].veinsmobility 	stopTime 	735
scalar RSUExampleScenario.node[40].veinsmobility 	minSpeed 	0
scalar RSUExampleScenario.node[40].veinsmobility 	maxSpeed 	16.668400137443
scalar RSUExampleScenario.node[40].veinsmobility 	totalDistance 	3256.4211890264
scalar RSUExampleScenario.node[40].veinsmobility 	totalCO2Emission 	1219.5977665962
scalar RSUExampleScenario.node[93].nic.phy80211p 	busyTime 	5.4306569343066e-06
scalar RSUExampleScenario.node[93].nic.mac1609_4 	ReceivedUnicastPackets 	0
scalar RSUExampleScenario.node[93].nic.mac1609_4 	ReceivedBroadcasts 	27
scalar RSUExampleScenario.node[93].nic.mac1609_4 	SentPackets 	1
scalar RSUExampleScenario.node[93].nic.mac1609_4 	SNIRLostPackets 	4
scalar RSUExampleScenario.node[93].nic.mac1609_4 	RXTXLostPackets 	0
scalar RSUExampleScenario.node[93].nic.mac1609_4 	TotalLostPackets 	4
scalar RSUExampleScenario.node[93].nic.mac1609_4 	DroppedPacketsInMac 	0
scalar RSUExampleScenario.node[93].nic.mac1609_4 	TooLittleTime 	0
scalar RSUExampleScenario.node[93].nic.mac1609_4 	TimesIntoBackoff 	1
scalar RSUExampleScenario.node[93].nic.mac1609_4 	SlotsBackoff 	0
scalar RSUExampleScenario.node[93].nic.mac1609_4 	NumInternalContention 	0
scalar RSUExampleScenario.node[93].nic.mac1609_4 	totalBusyTime 	0.002881
scalar RSUExampleScenario.node[93].veinsmobility 	startTime 	201
scalar RSUExampleScenario.node[93].veinsmobility 	totalTime 	547
scalar RSUExampleScenario.node[93].veinsmobility 	stopTime 	749
scalar RSUExampleScenario.node[93].veinsmobility 	minSpeed 	0
scalar RSUExampleScenario.node[93].veinsmobility 	maxSpeed 	27.777903780394
scalar RSUExampleScenario.node[93].veinsmobility 	totalDistance 	3392.1409923464
scalar RSUExampleScenario.node[93].veinsmobility 	totalCO2Emission 	1105.0225161972
scalar RSUExampleScenario.node[67].nic.phy80211p 	busyTime 	6.42088091354e-06
scalar RSUExampleScenario.node[67].nic.mac1609_4 	ReceivedUnicastPackets 	0
[...]
scalar RSUExampleScenario.node[308].veinsmobility 	minSpeed 	0
scalar RSUExampleScenario.node[308].veinsmobility 	maxSpeed 	16.662324956308
scalar RSUExampleScenario.node[308].veinsmobility 	totalDistance 	3760.5577466308
scalar RSUExampleScenario.node[308].veinsmobility 	totalCO2Emission 	1155.1373471894
scalar RSUExampleScenario.node[295].nic.phy80211p 	busyTime 	3.956043956044e-06
scalar RSUExampleScenario.node[295].nic.mac1609_4 	ReceivedUnicastPackets 	0
scalar RSUExampleScenario.node[295].nic.mac1609_4 	ReceivedBroadcasts 	27
scalar RSUExampleScenario.node[295].nic.mac1609_4 	SentPackets 	1
scalar RSUExampleScenario.node[295].nic.mac1609_4 	SNIRLostPackets 	3
scalar RSUExampleScenario.node[295].nic.mac1609_4 	RXTXLostPackets 	0
scalar RSUExampleScenario.node[295].nic.mac1609_4 	TotalLostPackets 	3
scalar RSUExampleScenario.node[295].nic.mac1609_4 	DroppedPacketsInMac 	0
scalar RSUExampleScenario.node[295].nic.mac1609_4 	TooLittleTime 	0
scalar RSUExampleScenario.node[295].nic.mac1609_4 	TimesIntoBackoff 	1
scalar RSUExampleScenario.node[295].nic.mac1609_4 	SlotsBackoff 	1
scalar RSUExampleScenario.node[295].nic.mac1609_4 	NumInternalContention 	0
scalar RSUExampleScenario.node[295].nic.mac1609_4 	totalBusyTime 	0.002785
scalar RSUExampleScenario.node[295].veinsmobility 	startTime 	917
scalar RSUExampleScenario.node[295].veinsmobility 	totalTime 	727
scalar RSUExampleScenario.node[295].veinsmobility 	stopTime 	1645
scalar RSUExampleScenario.node[295].veinsmobility 	minSpeed 	0
scalar RSUExampleScenario.node[295].veinsmobility 	maxSpeed 	27.767107743126
scalar RSUExampleScenario.node[295].veinsmobility 	totalDistance 	3394.070727003
scalar RSUExampleScenario.node[295].veinsmobility 	totalCO2Emission 	1223.9661563454
scalar RSUExampleScenario.node[296].nic.phy80211p 	busyTime 	3.813698630137e-06
scalar RSUExampleScenario.node[296].nic.mac1609_4 	ReceivedUnicastPackets 	0
scalar RSUExampleScenario.node[296].nic.mac1609_4 	ReceivedBroadcasts 	27
scalar RSUExampleScenario.node[296].nic.mac1609_4 	SentPackets 	1
scalar RSUExampleScenario.node[296].nic.mac1609_4 	SNIRLostPackets 	2
scalar RSUExampleScenario.node[296].nic.mac1609_4 	RXTXLostPackets 	1
scalar RSUExampleScenario.node[296].nic.mac1609_4 	TotalLostPackets 	3
scalar RSUExampleScenario.node[296].nic.mac1609_4 	DroppedPacketsInMac 	0
scalar RSUExampleScenario.node[296].nic.mac1609_4 	TooLittleTime 	0
scalar RSUExampleScenario.node[296].nic.mac1609_4 	TimesIntoBackoff 	1
scalar RSUExampleScenario.node[296].nic.mac1609_4 	SlotsBackoff 	5
scalar RSUExampleScenario.node[296].nic.mac1609_4 	NumInternalContention 	0
scalar RSUExampleScenario.node[296].nic.mac1609_4 	totalBusyTime 	0.002785
scalar RSUExampleScenario.node[296].veinsmobility 	startTime 	919
scalar RSUExampleScenario.node[296].veinsmobility 	totalTime 	729
scalar RSUExampleScenario.node[296].veinsmobility 	stopTime 	1649
scalar RSUExampleScenario.node[296].veinsmobility 	minSpeed 	0
scalar RSUExampleScenario.node[296].veinsmobility 	maxSpeed 	27.776028129618
scalar RSUExampleScenario.node[296].veinsmobility 	totalDistance 	3400.2665902056
scalar RSUExampleScenario.node[296].veinsmobility 	totalCO2Emission 	1227.5906009213
scalar RSUExampleScenario.node[297].nic.phy80211p 	busyTime 	1.5759233926129e-06
scalar RSUExampleScenario.node[297].nic.mac1609_4 	ReceivedUnicastPackets 	0
scalar RSUExampleScenario.node[297].nic.mac1609_4 	ReceivedBroadcasts 	12
scalar RSUExampleScenario.node[297].nic.mac1609_4 	SentPackets 	1
scalar RSUExampleScenario.node[297].nic.mac1609_4 	SNIRLostPackets 	0
scalar RSUExampleScenario.node[297].nic.mac1609_4 	RXTXLostPackets 	0
scalar RSUExampleScenario.node[297].nic.mac1609_4 	TotalLostPackets 	0
scalar RSUExampleScenario.node[297].nic.mac1609_4 	DroppedPacketsInMac 	0
scalar RSUExampleScenario.node[297].nic.mac1609_4 	TooLittleTime 	0
scalar RSUExampleScenario.node[297].nic.mac1609_4 	TimesIntoBackoff 	1
scalar RSUExampleScenario.node[297].nic.mac1609_4 	SlotsBackoff 	7
scalar RSUExampleScenario.node[297].nic.mac1609_4 	NumInternalContention 	0
scalar RSUExampleScenario.node[297].nic.mac1609_4 	totalBusyTime 	0.001249
scalar RSUExampleScenario.node[297].veinsmobility 	startTime 	921
scalar RSUExampleScenario.node[297].veinsmobility 	totalTime 	730
scalar RSUExampleScenario.node[297].veinsmobility 	stopTime 	1652
scalar RSUExampleScenario.node[297].veinsmobility 	minSpeed 	0
scalar RSUExampleScenario.node[297].veinsmobility 	maxSpeed 	27.777235314213
scalar RSUExampleScenario.node[297].veinsmobility 	totalDistance 	3396.178723847
scalar RSUExampleScenario.node[297].veinsmobility 	totalCO2Emission 	1221.5674204238
scalar RSUExampleScenario.node[298].nic.phy80211p 	busyTime 	1.5759233926129e-06
scalar RSUExampleScenario.node[298].nic.mac1609_4 	ReceivedUnicastPackets 	0
scalar RSUExampleScenario.node[298].nic.mac1609_4 	ReceivedBroadcasts 	12
scalar RSUExampleScenario.node[298].nic.mac1609_4 	SentPackets 	1
scalar RSUExampleScenario.node[298].nic.mac1609_4 	SNIRLostPackets 	0
scalar RSUExampleScenario.node[298].nic.mac1609_4 	RXTXLostPackets 	0
scalar RSUExampleScenario.node[298].nic.mac1609_4 	TotalLostPackets 	0
scalar RSUExampleScenario.node[298].nic.mac1609_4 	DroppedPacketsInMac 	0
scalar RSUExampleScenario.node[298].nic.mac1609_4 	TooLittleTime 	0
scalar RSUExampleScenario.node[298].nic.mac1609_4 	TimesIntoBackoff 	1
scalar RSUExampleScenario.node[298].nic.mac1609_4 	SlotsBackoff 	3
scalar RSUExampleScenario.node[298].nic.mac1609_4 	NumInternalContention 	0
scalar RSUExampleScenario.node[298].nic.mac1609_4 	totalBusyTime 	0.001249
scalar RSUExampleScenario.node[298].veinsmobility 	startTime 	924
scalar RSUExampleScenario.node[298].veinsmobility 	totalTime 	730
scalar RSUExampleScenario.node[298].veinsmobility 	stopTime 	1655
scalar RSUExampleScenario.node[298].veinsmobility 	minSpeed 	0
scalar RSUExampleScenario.node[298].veinsmobility 	maxSpeed 	27.770639116827
scalar RSUExampleScenario.node[298].veinsmobility 	totalDistance 	3395.4886073543
scalar RSUExampleScenario.node[298].veinsmobility 	totalCO2Emission 	1199.2741848838
scalar RSUExampleScenario.node[299].nic.phy80211p 	busyTime 	1.5759233926129e-06
scalar RSUExampleScenario.node[299].nic.mac1609_4 	ReceivedUnicastPackets 	0
scalar RSUExampleScenario.node[299].nic.mac1609_4 	ReceivedBroadcasts 	12
scalar RSUExampleScenario.node[299].nic.mac1609_4 	SentPackets 	1
scalar RSUExampleScenario.node[299].nic.mac1609_4 	SNIRLostPackets 	0
scalar RSUExampleScenario.node[299].nic.mac1609_4 	RXTXLostPackets 	0
scalar RSUExampleScenario.node[299].nic.mac1609_4 	TotalLostPackets 	0
scalar RSUExampleScenario.node[299].nic.mac1609_4 	DroppedPacketsInMac 	0
scalar RSUExampleScenario.node[299].nic.mac1609_4 	TooLittleTime 	0
scalar RSUExampleScenario.node[299].nic.mac1609_4 	TimesIntoBackoff 	1
scalar RSUExampleScenario.node[299].nic.mac1609_4 	SlotsBackoff 	2
scalar RSUExampleScenario.node[299].nic.mac1609_4 	NumInternalContention 	0
scalar RSUExampleScenario.node[299].nic.mac1609_4 	totalBusyTime 	0.001249
scalar RSUExampleScenario.node[299].veinsmobility 	startTime 	927
scalar RSUExampleScenario.node[299].veinsmobility 	totalTime 	730
scalar RSUExampleScenario.node[299].veinsmobility 	stopTime 	1658
scalar RSUExampleScenario.node[299].veinsmobility 	minSpeed 	0
scalar RSUExampleScenario.node[299].veinsmobility 	maxSpeed 	27.778502007965
scalar RSUExampleScenario.node[299].veinsmobility 	totalDistance 	3393.3810037407
scalar RSUExampleScenario.node[299].veinsmobility 	totalCO2Emission 	1195.9349396732
scalar RSUExampleScenario.node[300].nic.phy80211p 	busyTime 	1.5759233926129e-06
scalar RSUExampleScenario.node[300].nic.mac1609_4 	ReceivedUnicastPackets 	0
scalar RSUExampleScenario.node[300].nic.mac1609_4 	ReceivedBroadcasts 	12
scalar RSUExampleScenario.node[300].nic.mac1609_4 	SentPackets 	1
scalar RSUExampleScenario.node[300].nic.mac1609_4 	SNIRLostPackets 	0
scalar RSUExampleScenario.node[300].nic.mac1609_4 	RXTXLostPackets 	0
scalar RSUExampleScenario.node[300].nic.mac1609_4 	TotalLostPackets 	0
scalar RSUExampleScenario.node[300].nic.mac1609_4 	DroppedPacketsInMac 	0
scalar RSUExampleScenario.node[300].nic.mac1609_4 	TooLittleTime 	0
scalar RSUExampleScenario.node[300].nic.mac1609_4 	TimesIntoBackoff 	1
scalar RSUExampleScenario.node[300].nic.mac1609_4 	SlotsBackoff 	6
scalar RSUExampleScenario.node[300].nic.mac1609_4 	NumInternalContention 	0
scalar RSUExampleScenario.node[300].nic.mac1609_4 	totalBusyTime 	0.001249
scalar RSUExampleScenario.node[300].veinsmobility 	startTime 	930
scalar RSUExampleScenario.node[300].veinsmobility 	totalTime 	730
scalar RSUExampleScenario.node[300].veinsmobility 	stopTime 	1661
scalar RSUExampleScenario.node[300].veinsmobility 	minSpeed 	0
scalar RSUExampleScenario.node[300].veinsmobility 	maxSpeed 	27.778277774669
scalar RSUExampleScenario.node[300].veinsmobility 	totalDistance 	3393.4851842025
scalar RSUExampleScenario.node[300].veinsmobility 	totalCO2Emission 	1181.0888448166
scalar RSUExampleScenario.node[301].nic.phy80211p 	busyTime 	1.5780821917808e-06
scalar RSUExampleScenario.node[301].nic.mac1609_4 	ReceivedUnicastPackets 	0
scalar RSUExampleScenario.node[301].nic.mac1609_4 	ReceivedBroadcasts 	12
scalar RSUExampleScenario.node[301].nic.mac1609_4 	SentPackets 	1
scalar RSUExampleScenario.node[301].nic.mac1609_4 	SNIRLostPackets 	0
scalar RSUExampleScenario.node[301].nic.mac1609_4 	RXTXLostPackets 	0
scalar RSUExampleScenario.node[301].nic.mac1609_4 	TotalLostPackets 	0
scalar RSUExampleScenario.node[301].nic.mac1609_4 	DroppedPacketsInMac 	0
scalar RSUExampleScenario.node[301].nic.mac1609_4 	TooLittleTime 	0
scalar RSUExampleScenario.node[301].nic.mac1609_4 	TimesIntoBackoff 	1
scalar RSUExampleScenario.node[301].nic.mac1609_4 	SlotsBackoff 	6
scalar RSUExampleScenario.node[301].nic.mac1609_4 	NumInternalContention 	0
scalar RSUExampleScenario.node[301].nic.mac1609_4 	totalBusyTime 	0.001249
scalar RSUExampleScenario.node[301].veinsmobility 	startTime 	935
scalar RSUExampleScenario.node[301].veinsmobility 	totalTime 	729
scalar RSUExampleScenario.node[301].veinsmobility 	stopTime 	1665
scalar RSUExampleScenario.node[301].veinsmobility 	minSpeed 	0
scalar RSUExampleScenario.node[301].veinsmobility 	maxSpeed 	27.770950157497
scalar RSUExampleScenario.node[301].veinsmobility 	totalDistance 	3396.0920301969
scalar RSUExampleScenario.node[301].veinsmobility 	totalCO2Emission 	1234.9787045663
scalar RSUExampleScenario.node[309].nic.phy80211p 	busyTime 	1.1370558375635e-06
scalar RSUExampleScenario.node[309].nic.mac1609_4 	ReceivedUnicastPackets 	0
scalar RSUExampleScenario.node[309].nic.mac1609_4 	ReceivedBroadcasts 	7
scalar RSUExampleScenario.node[309].nic.mac1609_4 	SentPackets 	1
scalar RSUExampleScenario.node[309].nic.mac1609_4 	SNIRLostPackets 	0
scalar RSUExampleScenario.node[309].nic.mac1609_4 	RXTXLostPackets 	0
scalar RSUExampleScenario.node[309].nic.mac1609_4 	TotalLostPackets 	0
scalar RSUExampleScenario.node[309].nic.mac1609_4 	DroppedPacketsInMac 	0
scalar RSUExampleScenario.node[309].nic.mac1609_4 	TooLittleTime 	0
scalar RSUExampleScenario.node[309].nic.mac1609_4 	TimesIntoBackoff 	1
scalar RSUExampleScenario.node[309].nic.mac1609_4 	SlotsBackoff 	0
scalar RSUExampleScenario.node[309].nic.mac1609_4 	NumInternalContention 	0
scalar RSUExampleScenario.node[309].nic.mac1609_4 	totalBusyTime 	0.000769
scalar RSUExampleScenario.node[309].veinsmobility 	startTime 	1077
scalar RSUExampleScenario.node[309].veinsmobility 	totalTime 	590
scalar RSUExampleScenario.node[309].veinsmobility 	stopTime 	1668
scalar RSUExampleScenario.node[309].veinsmobility 	minSpeed 	0
scalar RSUExampleScenario.node[309].veinsmobility 	maxSpeed 	16.667568770399
scalar RSUExampleScenario.node[309].veinsmobility 	totalDistance 	3760.578959213
scalar RSUExampleScenario.node[309].veinsmobility 	totalCO2Emission 	1162.1863789668
scalar RSUExampleScenario.node[302].nic.phy80211p 	busyTime 	1.1052631578947e-06
scalar RSUExampleScenario.node[302].nic.mac1609_4 	ReceivedUnicastPackets 	0
scalar RSUExampleScenario.node[302].nic.mac1609_4 	ReceivedBroadcasts 	7
scalar RSUExampleScenario.node[302].nic.mac1609_4 	SentPackets 	1
scalar RSUExampleScenario.node[302].nic.mac1609_4 	SNIRLostPackets 	0
scalar RSUExampleScenario.node[302].nic.mac1609_4 	RXTXLostPackets 	0
scalar RSUExampleScenario.node[302].nic.mac1609_4 	TotalLostPackets 	0
scalar RSUExampleScenario.node[302].nic.mac1609_4 	DroppedPacketsInMac 	0
scalar RSUExampleScenario.node[302].nic.mac1609_4 	TooLittleTime 	0
scalar RSUExampleScenario.node[302].nic.mac1609_4 	TimesIntoBackoff 	1
scalar RSUExampleScenario.node[302].nic.mac1609_4 	SlotsBackoff 	0
scalar RSUExampleScenario.node[302].nic.mac1609_4 	NumInternalContention 	0
scalar RSUExampleScenario.node[302].nic.mac1609_4 	totalBusyTime 	0.000769
scalar RSUExampleScenario.node[302].veinsmobility 	startTime 	1063
scalar RSUExampleScenario.node[302].veinsmobility 	totalTime 	607
scalar RSUExampleScenario.node[302].veinsmobility 	stopTime 	1671
scalar RSUExampleScenario.node[302].veinsmobility 	minSpeed 	0
scalar RSUExampleScenario.node[302].veinsmobility 	maxSpeed 	27.778301454049
scalar RSUExampleScenario.node[302].veinsmobility 	totalDistance 	3394.9077393219
scalar RSUExampleScenario.node[302].veinsmobility 	totalCO2Emission 	1186.7925280915
scalar RSUExampleScenario.node[303].nic.phy80211p 	busyTime 	1.1016393442623e-06
scalar RSUExampleScenario.node[303].nic.mac1609_4 	ReceivedUnicastPackets 	0
scalar RSUExampleScenario.node[303].nic.mac1609_4 	ReceivedBroadcasts 	7
scalar RSUExampleScenario.node[303].nic.mac1609_4 	SentPackets 	1
scalar RSUExampleScenario.node[303].nic.mac1609_4 	SNIRLostPackets 	0
scalar RSUExampleScenario.node[303].nic.mac1609_4 	RXTXLostPackets 	0
scalar RSUExampleScenario.node[303].nic.mac1609_4 	TotalLostPackets 	0
scalar RSUExampleScenario.node[303].nic.mac1609_4 	DroppedPacketsInMac 	0
scalar RSUExampleScenario.node[303].nic.mac1609_4 	TooLittleTime 	0
scalar RSUExampleScenario.node[303].nic.mac1609_4 	TimesIntoBackoff 	1
scalar RSUExampleScenario.node[303].nic.mac1609_4 	SlotsBackoff 	2
scalar RSUExampleScenario.node[303].nic.mac1609_4 	NumInternalContention 	0
scalar RSUExampleScenario.node[303].nic.mac1609_4 	totalBusyTime 	0.000769
scalar RSUExampleScenario.node[303].veinsmobility 	startTime 	1065
scalar RSUExampleScenario.node[303].veinsmobility 	totalTime 	609
scalar RSUExampleScenario.node[303].veinsmobility 	stopTime 	1675
scalar RSUExampleScenario.node[303].veinsmobility 	minSpeed 	0
scalar RSUExampleScenario.node[303].veinsmobility 	maxSpeed 	27.775116555515
scalar RSUExampleScenario.node[303].veinsmobility 	totalDistance 	3397.6636253017
scalar RSUExampleScenario.node[303].veinsmobility 	totalCO2Emission 	1156.8685220964
scalar RSUExampleScenario.node[304].nic.phy80211p 	busyTime 	1.0944625407166e-06
scalar RSUExampleScenario.node[304].nic.mac1609_4 	ReceivedUnicastPackets 	0
scalar RSUExampleScenario.node[304].nic.mac1609_4 	ReceivedBroadcasts 	7
scalar RSUExampleScenario.node[304].nic.mac1609_4 	SentPackets 	1
scalar RSUExampleScenario.node[304].nic.mac1609_4 	SNIRLostPackets 	0
scalar RSUExampleScenario.node[304].nic.mac1609_4 	RXTXLostPackets 	0
scalar RSUExampleScenario.node[304].nic.mac1609_4 	TotalLostPackets 	0
scalar RSUExampleScenario.node[304].nic.mac1609_4 	DroppedPacketsInMac 	0
scalar RSUExampleScenario.node[304].nic.mac1609_4 	TooLittleTime 	0
scalar RSUExampleScenario.node[304].nic.mac1609_4 	TimesIntoBackoff 	1
scalar RSUExampleScenario.node[304].nic.mac1609_4 	SlotsBackoff 	0
scalar RSUExampleScenario.node[304].nic.mac1609_4 	NumInternalContention 	0
scalar RSUExampleScenario.node[304].nic.mac1609_4 	totalBusyTime 	0.000769
scalar RSUExampleScenario.node[304].veinsmobility 	startTime 	1067
scalar RSUExampleScenario.node[304].veinsmobility 	totalTime 	613
scalar RSUExampleScenario.node[304].veinsmobility 	stopTime 	1681
scalar RSUExampleScenario.node[304].veinsmobility 	minSpeed 	0
scalar RSUExampleScenario.node[304].veinsmobility 	maxSpeed 	27.766035954823
scalar RSUExampleScenario.node[304].veinsmobility 	totalDistance 	3389.799486866
scalar RSUExampleScenario.node[304].veinsmobility 	totalCO2Emission 	1145.1403269843
scalar RSUExampleScenario.node[306].nic.phy80211p 	busyTime 	1.0944625407166e-06
scalar RSUExampleScenario.node[306].nic.mac1609_4 	ReceivedUnicastPackets 	0
scalar RSUExampleScenario.node[306].nic.mac1609_4 	ReceivedBroadcasts 	7
scalar RSUExampleScenario.node[306].nic.mac1609_4 	SentPackets 	1
scalar RSUExampleScenario.node[306].nic.mac1609_4 	SNIRLostPackets 	0
scalar RSUExampleScenario.node[306].nic.mac1609_4 	RXTXLostPackets 	0
scalar RSUExampleScenario.node[306].nic.mac1609_4 	TotalLostPackets 	0
scalar RSUExampleScenario.node[306].nic.mac1609_4 	DroppedPacketsInMac 	0
scalar RSUExampleScenario.node[306].nic.mac1609_4 	TooLittleTime 	0
scalar RSUExampleScenario.node[306].nic.mac1609_4 	TimesIntoBackoff 	1
scalar RSUExampleScenario.node[306].nic.mac1609_4 	SlotsBackoff 	7
scalar RSUExampleScenario.node[306].nic.mac1609_4 	NumInternalContention 	0
scalar RSUExampleScenario.node[306].nic.mac1609_4 	totalBusyTime 	0.000769
scalar RSUExampleScenario.node[306].veinsmobility 	startTime 	1071
scalar RSUExampleScenario.node[306].veinsmobility 	totalTime 	613
scalar RSUExampleScenario.node[306].veinsmobility 	stopTime 	1685
scalar RSUExampleScenario.node[306].veinsmobility 	minSpeed 	0
scalar RSUExampleScenario.node[306].veinsmobility 	maxSpeed 	27.767186788495
scalar RSUExampleScenario.node[306].veinsmobility 	totalDistance 	3395.077374395
scalar RSUExampleScenario.node[306].veinsmobility 	totalCO2Emission 	1136.859473458
scalar RSUExampleScenario.node[305].nic.phy80211p 	busyTime 	1.0856219709208e-06
scalar RSUExampleScenario.node[305].nic.mac1609_4 	ReceivedUnicastPackets 	0
scalar RSUExampleScenario.node[305].nic.mac1609_4 	ReceivedBroadcasts 	7
scalar RSUExampleScenario.node[305].nic.mac1609_4 	SentPackets 	1
scalar RSUExampleScenario.node[305].nic.mac1609_4 	SNIRLostPackets 	0
scalar RSUExampleScenario.node[305].nic.mac1609_4 	RXTXLostPackets 	0
scalar RSUExampleScenario.node[305].nic.mac1609_4 	TotalLostPackets 	0
scalar RSUExampleScenario.node[305].nic.mac1609_4 	DroppedPacketsInMac 	0
scalar RSUExampleScenario.node[305].nic.mac1609_4 	TooLittleTime 	0
scalar RSUExampleScenario.node[305].nic.mac1609_4 	TimesIntoBackoff 	1
scalar RSUExampleScenario.node[305].nic.mac1609_4 	SlotsBackoff 	4
scalar RSUExampleScenario.node[305].nic.mac1609_4 	NumInternalContention 	0
scalar RSUExampleScenario.node[305].nic.mac1609_4 	totalBusyTime 	0.000769
scalar RSUExampleScenario.node[305].veinsmobility 	startTime 	1069
scalar RSUExampleScenario.node[305].veinsmobility 	totalTime 	618
scalar RSUExampleScenario.node[305].veinsmobility 	stopTime 	1688
scalar RSUExampleScenario.node[305].veinsmobility 	minSpeed 	0
scalar RSUExampleScenario.node[305].veinsmobility 	maxSpeed 	27.457560898456
scalar RSUExampleScenario.node[305].veinsmobility 	totalDistance 	3397.8009714026
scalar RSUExampleScenario.node[305].veinsmobility 	totalCO2Emission 	1136.8249949303
scalar RSUExampleScenario.rsu[0].nic.phy80211p 	busyTime 	6.048e-07
scalar RSUExampleScenario.rsu[0].nic.mac1609_4 	ReceivedUnicastPackets 	0
scalar RSUExampleScenario.rsu[0].nic.mac1609_4 	ReceivedBroadcasts 	38
scalar RSUExampleScenario.rsu[0].nic.mac1609_4 	SentPackets 	1
scalar RSUExampleScenario.rsu[0].nic.mac1609_4 	SNIRLostPackets 	25
scalar RSUExampleScenario.rsu[0].nic.mac1609_4 	RXTXLostPackets 	1
scalar RSUExampleScenario.rsu[0].nic.mac1609_4 	TotalLostPackets 	26
scalar RSUExampleScenario.rsu[0].nic.mac1609_4 	DroppedPacketsInMac 	0
scalar RSUExampleScenario.rsu[0].nic.mac1609_4 	TooLittleTime 	0
scalar RSUExampleScenario.rsu[0].nic.mac1609_4 	TimesIntoBackoff 	2
scalar RSUExampleScenario.rsu[0].nic.mac1609_4 	SlotsBackoff 	4
scalar RSUExampleScenario.rsu[0].nic.mac1609_4 	NumInternalContention 	0
scalar RSUExampleScenario.rsu[0].nic.mac1609_4 	totalBusyTime 	0.005473
