file 37403304 1483359269                                        
version 2
run debug-0-20170102-13:11:47-3059
attr configname debug
attr datetime 20170102-13:11:47
attr experiment debug
attr inifile omnetpp.ini
attr iterationvars ""
attr iterationvars2 $repetition=0
attr measurement ""
attr network RSUExampleScenario
attr processid 3059
attr repetition 0
attr replication #0
attr resultdir results
attr runnumber 0
attr seedset 0
param **.coreDebug false
param **.debug false
param *.**.nic.mac1609_4.bitrate 18Mbps
param *.**.nic.mac1609_4.txPower 20mW
param *.**.nic.mac1609_4.useServiceChannel false
param *.**.nic.phy80211p.analogueModels "xmldoc(\"config.xml\")"
param *.**.nic.phy80211p.decider "xmldoc(\"config.xml\")"
param *.**.nic.phy80211p.sensitivity -89dBm
param *.**.nic.phy80211p.thermalNoise -110dBm
param *.**.nic.phy80211p.usePropagationDelay true
param *.**.nic.phy80211p.useThermalNoise true
param *.annotations.draw false
param *.connectionManager.alpha 2.0
param *.connectionManager.carrierFrequency "5.890e9 Hz"
param *.connectionManager.pMax 12mW
param *.connectionManager.sat -89dBm
param *.connectionManager.sendDirect true
param *.manager.autoShutdown true
param *.manager.host "\"localhost\""
param *.manager.launchConfig "xmldoc(\"erlangen.launchd.xml\")"
param *.manager.margin 25
param *.manager.moduleDisplayString "\"\""
param *.manager.moduleName "\"node\""
param *.manager.moduleType "\"org.car2x.veins.nodes.Car\""
param *.manager.port 9999
param *.manager.updateInterval 1s
param *.node[*].appl.beaconInterval 1s
param *.node[*].appl.beaconPriority 3
param *.node[*].appl.dataOnSch false
param *.node[*].appl.dataPriority 2
param *.node[*].appl.debug false
param *.node[*].appl.headerLength "256 bit"
param *.node[*].appl.maxOffset 0.005s
param *.node[*].appl.sendBeacons false
param *.node[*].appl.sendData true
param *.node[*].applType "\"TraCIDemo11p\""
param *.node[*].mobilityType "\"TraCIMobility\""
param *.node[*].mobilityType.debug true
param *.node[*].veinsmobility.accidentCount 5
param *.node[*].veinsmobility.accidentDuration 43s
param *.node[*].veinsmobility.accidentStart 85s
param *.node[*].veinsmobility.x 0
param *.node[*].veinsmobility.y 0
param *.node[*].veinsmobility.z 1.895
param *.node[*].veinsmobilityType "\"org.car2x.veins.modules.mobility.traci.TraCIMobility\""
param *.node[*].veinsmobilityType.debug true
param *.obstacles.debug false
param *.obstacles.obstacles "xmldoc(\"config.xml\", \"//AnalogueModel[@type='SimpleObstacleShadowing']/obstacles\")"
param *.playgroundSizeX 2500m
param *.playgroundSizeY 2500m
param *.playgroundSizeZ 50m
param *.rsu[*].appl.beaconInterval 1s
param *.rsu[*].appl.beaconPriority 3
param *.rsu[*].appl.dataOnSch false
param *.rsu[*].appl.dataPriority 2
param *.rsu[*].appl.debug false
param *.rsu[*].appl.headerLength "256 bit"
param *.rsu[*].appl.maxOffset 0.005s
param *.rsu[*].appl.sendBeacons false
param *.rsu[*].appl.sendData true
param *.rsu[*].applType "\"TraCIDemoRSU11p\""
param *.rsu[0].mobility.x 2000
param *.rsu[0].mobility.y 2000
param *.rsu[0].mobility.z 3
param *.world.use2D false
param *.world.useTorus false

vector 4  RSUExampleScenario.node[0].veinsmobility  posx  ETV
vector 5  RSUExampleScenario.node[0].veinsmobility  posy  ETV
vector 6  RSUExampleScenario.node[0].veinsmobility  speed  ETV
vector 11  RSUExampleScenario.node[1].veinsmobility  posx  ETV
vector 12  RSUExampleScenario.node[1].veinsmobility  posy  ETV
vector 7  RSUExampleScenario.node[0].veinsmobility  acceleration  ETV
vector 8  RSUExampleScenario.node[0].veinsmobility  co2emission  ETV
vector 13  RSUExampleScenario.node[1].veinsmobility  speed  ETV
vector 18  RSUExampleScenario.node[2].veinsmobility  posx  ETV
vector 19  RSUExampleScenario.node[2].veinsmobility  posy  ETV
vector 14  RSUExampleScenario.node[1].veinsmobility  acceleration  ETV
vector 15  RSUExampleScenario.node[1].veinsmobility  co2emission  ETV
vector 20  RSUExampleScenario.node[2].veinsmobility  speed  ETV
vector 25  RSUExampleScenario.node[3].veinsmobility  posx  ETV
vector 26  RSUExampleScenario.node[3].veinsmobility  posy  ETV
vector 21  RSUExampleScenario.node[2].veinsmobility  acceleration  ETV
vector 22  RSUExampleScenario.node[2].veinsmobility  co2emission  ETV
vector 32  RSUExampleScenario.node[4].veinsmobility  posx  ETV
vector 33  RSUExampleScenario.node[4].veinsmobility  posy  ETV
vector 27  RSUExampleScenario.node[3].veinsmobility  speed  ETV
vector 28  RSUExampleScenario.node[3].veinsmobility  acceleration  ETV
vector 29  RSUExampleScenario.node[3].veinsmobility  co2emission  ETV
vector 34  RSUExampleScenario.node[4].veinsmobility  speed  ETV
vector 39  RSUExampleScenario.node[5].veinsmobility  posx  ETV
vector 40  RSUExampleScenario.node[5].veinsmobility  posy  ETV
vector 35  RSUExampleScenario.node[4].veinsmobility  acceleration  ETV
vector 36  RSUExampleScenario.node[4].veinsmobility  co2emission  ETV
vector 41  RSUExampleScenario.node[5].veinsmobility  speed  ETV
vector 46  RSUExampleScenario.node[6].veinsmobility  posx  ETV
vector 47  RSUExampleScenario.node[6].veinsmobility  posy  ETV
vector 42  RSUExampleScenario.node[5].veinsmobility  acceleration  ETV
vector 43  RSUExampleScenario.node[5].veinsmobility  co2emission  ETV
vector 48  RSUExampleScenario.node[6].veinsmobility  speed  ETV
vector 53  RSUExampleScenario.node[7].veinsmobility  posx  ETV
vector 54  RSUExampleScenario.node[7].veinsmobility  posy  ETV
vector 49  RSUExampleScenario.node[6].veinsmobility  acceleration  ETV
vector 50  RSUExampleScenario.node[6].veinsmobility  co2emission  ETV
vector 55  RSUExampleScenario.node[7].veinsmobility  speed  ETV
vector 60  RSUExampleScenario.node[8].veinsmobility  posx  ETV
vector 61  RSUExampleScenario.node[8].veinsmobility  posy  ETV
vector 56  RSUExampleScenario.node[7].veinsmobility  acceleration  ETV
vector 57  RSUExampleScenario.node[7].veinsmobility  co2emission  ETV
vector 67  RSUExampleScenario.node[9].veinsmobility  posx  ETV
vector 68  RSUExampleScenario.node[9].veinsmobility  posy  ETV
vector 62  RSUExampleScenario.node[8].veinsmobility  speed  ETV
vector 63  RSUExampleScenario.node[8].veinsmobility  acceleration  ETV
vector 64  RSUExampleScenario.node[8].veinsmobility  co2emission  ETV
vector 69  RSUExampleScenario.node[9].veinsmobility  speed  ETV
vector 74  RSUExampleScenario.node[10].veinsmobility  posx  ETV
vector 75  RSUExampleScenario.node[10].veinsmobility  posy  ETV
vector 70  RSUExampleScenario.node[9].veinsmobility  acceleration  ETV
vector 71  RSUExampleScenario.node[9].veinsmobility  co2emission  ETV
vector 81  RSUExampleScenario.node[11].veinsmobility  posx  ETV
vector 82  RSUExampleScenario.node[11].veinsmobility  posy  ETV
vector 76  RSUExampleScenario.node[10].veinsmobility  speed  ETV
vector 77  RSUExampleScenario.node[10].veinsmobility  acceleration  ETV
vector 78  RSUExampleScenario.node[10].veinsmobility  co2emission  ETV
vector 83  RSUExampleScenario.node[11].veinsmobility  speed  ETV
vector 84  RSUExampleScenario.node[11].veinsmobility  acceleration  ETV
vector 85  RSUExampleScenario.node[11].veinsmobility  co2emission  ETV
vector 88  RSUExampleScenario.node[12].veinsmobility  posx  ETV
vector 89  RSUExampleScenario.node[12].veinsmobility  posy  ETV
vector 90  RSUExampleScenario.node[12].veinsmobility  speed  ETV
vector 95  RSUExampleScenario.node[13].veinsmobility  posx  ETV
vector 96  RSUExampleScenario.node[13].veinsmobility  posy  ETV
vector 91  RSUExampleScenario.node[12].veinsmobility  acceleration  ETV
vector 92  RSUExampleScenario.node[12].veinsmobility  co2emission  ETV
vector 97  RSUExampleScenario.node[13].veinsmobility  speed  ETV
vector 102  RSUExampleScenario.node[14].veinsmobility  posx  ETV
vector 103  RSUExampleScenario.node[14].veinsmobility  posy  ETV
vector 98  RSUExampleScenario.node[13].veinsmobility  acceleration  ETV
vector 99  RSUExampleScenario.node[13].veinsmobility  co2emission  ETV
vector 109  RSUExampleScenario.node[15].veinsmobility  posx  ETV
vector 110  RSUExampleScenario.node[15].veinsmobility  posy  ETV
vector 104  RSUExampleScenario.node[14].veinsmobility  speed  ETV
vector 105  RSUExampleScenario.node[14].veinsmobility  acceleration  ETV
vector 106  RSUExampleScenario.node[14].veinsmobility  co2emission  ETV
vector 111  RSUExampleScenario.node[15].veinsmobility  speed  ETV
vector 116  RSUExampleScenario.node[16].veinsmobility  posx  ETV
vector 117  RSUExampleScenario.node[16].veinsmobility  posy  ETV
vector 112  RSUExampleScenario.node[15].veinsmobility  acceleration  ETV
vector 113  RSUExampleScenario.node[15].veinsmobility  co2emission  ETV
vector 123  RSUExampleScenario.node[17].veinsmobility  posx  ETV
vector 124  RSUExampleScenario.node[17].veinsmobility  posy  ETV
vector 118  RSUExampleScenario.node[16].veinsmobility  speed  ETV
vector 119  RSUExampleScenario.node[16].veinsmobility  acceleration  ETV
vector 120  RSUExampleScenario.node[16].veinsmobility  co2emission  ETV
vector 125  RSUExampleScenario.node[17].veinsmobility  speed  ETV
vector 130  RSUExampleScenario.node[18].veinsmobility  posx  ETV
vector 131  RSUExampleScenario.node[18].veinsmobility  posy  ETV
vector 126  RSUExampleScenario.node[17].veinsmobility  acceleration  ETV
vector 127  RSUExampleScenario.node[17].veinsmobility  co2emission  ETV
vector 137  RSUExampleScenario.node[19].veinsmobility  posx  ETV
vector 138  RSUExampleScenario.node[19].veinsmobility  posy  ETV
vector 132  RSUExampleScenario.node[18].veinsmobility  speed  ETV
vector 133  RSUExampleScenario.node[18].veinsmobility  acceleration  ETV
vector 134  RSUExampleScenario.node[18].veinsmobility  co2emission  ETV
vector 139  RSUExampleScenario.node[19].veinsmobility  speed  ETV
vector 144  RSUExampleScenario.node[20].veinsmobility  posx  ETV
vector 145  RSUExampleScenario.node[20].veinsmobility  posy  ETV
vector 140  RSUExampleScenario.node[19].veinsmobility  acceleration  ETV
vector 141  RSUExampleScenario.node[19].veinsmobility  co2emission  ETV
vector 151  RSUExampleScenario.node[21].veinsmobility  posx  ETV
vector 152  RSUExampleScenario.node[21].veinsmobility  posy  ETV
vector 146  RSUExampleScenario.node[20].veinsmobility  speed  ETV
vector 147  RSUExampleScenario.node[20].veinsmobility  acceleration  ETV
vector 148  RSUExampleScenario.node[20].veinsmobility  co2emission  ETV
vector 153  RSUExampleScenario.node[21].veinsmobility  speed  ETV
vector 158  RSUExampleScenario.node[22].veinsmobility  posx  ETV
vector 159  RSUExampleScenario.node[22].veinsmobility  posy  ETV
vector 154  RSUExampleScenario.node[21].veinsmobility  acceleration  ETV
vector 155  RSUExampleScenario.node[21].veinsmobility  co2emission  ETV
vector 160  RSUExampleScenario.node[22].veinsmobility  speed  ETV
vector 161  RSUExampleScenario.node[22].veinsmobility  acceleration  ETV
vector 162  RSUExampleScenario.node[22].veinsmobility  co2emission  ETV
vector 165  RSUExampleScenario.node[23].veinsmobility  posx  ETV
vector 166  RSUExampleScenario.node[23].veinsmobility  posy  ETV
vector 167  RSUExampleScenario.node[23].veinsmobility  speed  ETV
vector 172  RSUExampleScenario.node[24].veinsmobility  posx  ETV
vector 173  RSUExampleScenario.node[24].veinsmobility  posy  ETV
vector 168  RSUExampleScenario.node[23].veinsmobility  acceleration  ETV
vector 169  RSUExampleScenario.node[23].veinsmobility  co2emission  ETV
vector 174  RSUExampleScenario.node[24].veinsmobility  speed  ETV
vector 179  RSUExampleScenario.node[25].veinsmobility  posx  ETV
vector 180  RSUExampleScenario.node[25].veinsmobility  posy  ETV
vector 175  RSUExampleScenario.node[24].veinsmobility  acceleration  ETV
vector 176  RSUExampleScenario.node[24].veinsmobility  co2emission  ETV
vector 181  RSUExampleScenario.node[25].veinsmobility  speed  ETV
vector 186  RSUExampleScenario.node[26].veinsmobility  posx  ETV
vector 187  RSUExampleScenario.node[26].veinsmobility  posy  ETV
vector 182  RSUExampleScenario.node[25].veinsmobility  acceleration  ETV
vector 183  RSUExampleScenario.node[25].veinsmobility  co2emission  ETV
vector 193  RSUExampleScenario.node[27].veinsmobility  posx  ETV
vector 194  RSUExampleScenario.node[27].veinsmobility  posy  ETV
vector 188  RSUExampleScenario.node[26].veinsmobility  speed  ETV
vector 189  RSUExampleScenario.node[26].veinsmobility  acceleration  ETV
vector 190  RSUExampleScenario.node[26].veinsmobility  co2emission  ETV
vector 195  RSUExampleScenario.node[27].veinsmobility  speed  ETV
vector 200  RSUExampleScenario.node[28].veinsmobility  posx  ETV
vector 201  RSUExampleScenario.node[28].veinsmobility  posy  ETV
vector 196  RSUExampleScenario.node[27].veinsmobility  acceleration  ETV
vector 197  RSUExampleScenario.node[27].veinsmobility  co2emission  ETV
vector 202  RSUExampleScenario.node[28].veinsmobility  speed  ETV
vector 207  RSUExampleScenario.node[29].veinsmobility  posx  ETV
vector 208  RSUExampleScenario.node[29].veinsmobility  posy  ETV
vector 203  RSUExampleScenario.node[28].veinsmobility  acceleration  ETV
vector 204  RSUExampleScenario.node[28].veinsmobility  co2emission  ETV
vector 209  RSUExampleScenario.node[29].veinsmobility  speed  ETV
vector 214  RSUExampleScenario.node[30].veinsmobility  posx  ETV
vector 215  RSUExampleScenario.node[30].veinsmobility  posy  ETV
vector 210  RSUExampleScenario.node[29].veinsmobility  acceleration  ETV
vector 211  RSUExampleScenario.node[29].veinsmobility  co2emission  ETV
vector 221  RSUExampleScenario.node[31].veinsmobility  posx  ETV
vector 222  RSUExampleScenario.node[31].veinsmobility  posy  ETV
vector 216  RSUExampleScenario.node[30].veinsmobility  speed  ETV
vector 217  RSUExampleScenario.node[30].veinsmobility  acceleration  ETV
vector 218  RSUExampleScenario.node[30].veinsmobility  co2emission  ETV
vector 223  RSUExampleScenario.node[31].veinsmobility  speed  ETV
vector 228  RSUExampleScenario.node[32].veinsmobility  posx  ETV
vector 229  RSUExampleScenario.node[32].veinsmobility  posy  ETV
vector 224  RSUExampleScenario.node[31].veinsmobility  acceleration  ETV
vector 225  RSUExampleScenario.node[31].veinsmobility  co2emission  ETV
vector 230  RSUExampleScenario.node[32].veinsmobility  speed  ETV
vector 235  RSUExampleScenario.node[33].veinsmobility  posx  ETV
vector 236  RSUExampleScenario.node[33].veinsmobility  posy  ETV
vector 231  RSUExampleScenario.node[32].veinsmobility  acceleration  ETV
vector 232  RSUExampleScenario.node[32].veinsmobility  co2emission  ETV
vector 237  RSUExampleScenario.node[33].veinsmobility  speed  ETV
vector 242  RSUExampleScenario.node[34].veinsmobility  posx  ETV
vector 243  RSUExampleScenario.node[34].veinsmobility  posy  ETV
vector 238  RSUExampleScenario.node[33].veinsmobility  acceleration  ETV
vector 239  RSUExampleScenario.node[33].veinsmobility  co2emission  ETV
vector 244  RSUExampleScenario.node[34].veinsmobility  speed  ETV
vector 249  RSUExampleScenario.node[35].veinsmobility  posx  ETV
vector 250  RSUExampleScenario.node[35].veinsmobility  posy  ETV
vector 245  RSUExampleScenario.node[34].veinsmobility  acceleration  ETV
vector 246  RSUExampleScenario.node[34].veinsmobility  co2emission  ETV
vector 251  RSUExampleScenario.node[35].veinsmobility  speed  ETV
vector 256  RSUExampleScenario.node[36].veinsmobility  posx  ETV
vector 257  RSUExampleScenario.node[36].veinsmobility  posy  ETV
vector 252  RSUExampleScenario.node[35].veinsmobility  acceleration  ETV
vector 253  RSUExampleScenario.node[35].veinsmobility  co2emission  ETV
vector 258  RSUExampleScenario.node[36].veinsmobility  speed  ETV
vector 263  RSUExampleScenario.node[37].veinsmobility  posx  ETV
vector 264  RSUExampleScenario.node[37].veinsmobility  posy  ETV
vector 259  RSUExampleScenario.node[36].veinsmobility  acceleration  ETV
vector 260  RSUExampleScenario.node[36].veinsmobility  co2emission  ETV
vector 265  RSUExampleScenario.node[37].veinsmobility  speed  ETV
vector 270  RSUExampleScenario.node[38].veinsmobility  posx  ETV
vector 271  RSUExampleScenario.node[38].veinsmobility  posy  ETV
vector 266  RSUExampleScenario.node[37].veinsmobility  acceleration  ETV
vector 267  RSUExampleScenario.node[37].veinsmobility  co2emission  ETV
vector 272  RSUExampleScenario.node[38].veinsmobility  speed  ETV
vector 277  RSUExampleScenario.node[39].veinsmobility  posx  ETV
vector 278  RSUExampleScenario.node[39].veinsmobility  posy  ETV
vector 273  RSUExampleScenario.node[38].veinsmobility  acceleration  ETV
vector 274  RSUExampleScenario.node[38].veinsmobility  co2emission  ETV
vector 279  RSUExampleScenario.node[39].veinsmobility  speed  ETV
vector 284  RSUExampleScenario.node[40].veinsmobility  posx  ETV
vector 285  RSUExampleScenario.node[40].veinsmobility  posy  ETV
vector 280  RSUExampleScenario.node[39].veinsmobility  acceleration  ETV
vector 281  RSUExampleScenario.node[39].veinsmobility  co2emission  ETV
vector 286  RSUExampleScenario.node[40].veinsmobility  speed  ETV
vector 291  RSUExampleScenario.node[41].veinsmobility  posx  ETV
vector 292  RSUExampleScenario.node[41].veinsmobility  posy  ETV
vector 287  RSUExampleScenario.node[40].veinsmobility  acceleration  ETV
vector 288  RSUExampleScenario.node[40].veinsmobility  co2emission  ETV
vector 293  RSUExampleScenario.node[41].veinsmobility  speed  ETV
vector 298  RSUExampleScenario.node[42].veinsmobility  posx  ETV
vector 299  RSUExampleScenario.node[42].veinsmobility  posy  ETV
vector 294  RSUExampleScenario.node[41].veinsmobility  acceleration  ETV
vector 295  RSUExampleScenario.node[41].veinsmobility  co2emission  ETV
vector 300  RSUExampleScenario.node[42].veinsmobility  speed  ETV
vector 305  RSUExampleScenario.node[43].veinsmobility  posx  ETV
vector 306  RSUExampleScenario.node[43].veinsmobility  posy  ETV
vector 301  RSUExampleScenario.node[42].veinsmobility  acceleration  ETV
vector 302  RSUExampleScenario.node[42].veinsmobility  co2emission  ETV
vector 307  RSUExampleScenario.node[43].veinsmobility  speed  ETV
vector 308  RSUExampleScenario.node[43].veinsmobility  acceleration  ETV
vector 309  RSUExampleScenario.node[43].veinsmobility  co2emission  ETV
vector 312  RSUExampleScenario.node[44].veinsmobility  posx  ETV
vector 313  RSUExampleScenario.node[44].veinsmobility  posy  ETV
vector 314  RSUExampleScenario.node[44].veinsmobility  speed  ETV
vector 315  RSUExampleScenario.node[44].veinsmobility  acceleration  ETV
vector 316  RSUExampleScenario.node[44].veinsmobility  co2emission  ETV
vector 319  RSUExampleScenario.node[45].veinsmobility  posx  ETV
vector 320  RSUExampleScenario.node[45].veinsmobility  posy  ETV
vector 321  RSUExampleScenario.node[45].veinsmobility  speed  ETV
vector 326  RSUExampleScenario.node[46].veinsmobility  posx  ETV
vector 327  RSUExampleScenario.node[46].veinsmobility  posy  ETV
vector 322  RSUExampleScenario.node[45].veinsmobility  acceleration  ETV
vector 323  RSUExampleScenario.node[45].veinsmobility  co2emission  ETV
vector 328  RSUExampleScenario.node[46].veinsmobility  speed  ETV
vector 329  RSUExampleScenario.node[46].veinsmobility  acceleration  ETV
vector 330  RSUExampleScenario.node[46].veinsmobility  co2emission  ETV
vector 333  RSUExampleScenario.node[47].veinsmobility  posx  ETV
vector 334  RSUExampleScenario.node[47].veinsmobility  posy  ETV
vector 335  RSUExampleScenario.node[47].veinsmobility  speed  ETV
vector 340  RSUExampleScenario.node[48].veinsmobility  posx  ETV
vector 341  RSUExampleScenario.node[48].veinsmobility  posy  ETV
vector 336  RSUExampleScenario.node[47].veinsmobility  acceleration  ETV
vector 337  RSUExampleScenario.node[47].veinsmobility  co2emission  ETV
vector 342  RSUExampleScenario.node[48].veinsmobility  speed  ETV
vector 347  RSUExampleScenario.node[49].veinsmobility  posx  ETV
vector 348  RSUExampleScenario.node[49].veinsmobility  posy  ETV
vector 343  RSUExampleScenario.node[48].veinsmobility  acceleration  ETV
vector 344  RSUExampleScenario.node[48].veinsmobility  co2emission  ETV
vector 349  RSUExampleScenario.node[49].veinsmobility  speed  ETV
vector 354  RSUExampleScenario.node[50].veinsmobility  posx  ETV
vector 355  RSUExampleScenario.node[50].veinsmobility  posy  ETV
vector 350  RSUExampleScenario.node[49].veinsmobility  acceleration  ETV
vector 351  RSUExampleScenario.node[49].veinsmobility  co2emission  ETV
vector 356  RSUExampleScenario.node[50].veinsmobility  speed  ETV
vector 361  RSUExampleScenario.node[51].veinsmobility  posx  ETV
vector 362  RSUExampleScenario.node[51].veinsmobility  posy  ETV
vector 357  RSUExampleScenario.node[50].veinsmobility  acceleration  ETV
vector 358  RSUExampleScenario.node[50].veinsmobility  co2emission  ETV
vector 363  RSUExampleScenario.node[51].veinsmobility  speed  ETV
vector 368  RSUExampleScenario.node[52].veinsmobility  posx  ETV
vector 369  RSUExampleScenario.node[52].veinsmobility  posy  ETV
vector 364  RSUExampleScenario.node[51].veinsmobility  acceleration  ETV
vector 365  RSUExampleScenario.node[51].veinsmobility  co2emission  ETV
vector 370  RSUExampleScenario.node[52].veinsmobility  speed  ETV
vector 371  RSUExampleScenario.node[52].veinsmobility  acceleration  ETV
vector 372  RSUExampleScenario.node[52].veinsmobility  co2emission  ETV
vector 375  RSUExampleScenario.node[53].veinsmobility  posx  ETV
vector 376  RSUExampleScenario.node[53].veinsmobility  posy  ETV
vector 377  RSUExampleScenario.node[53].veinsmobility  speed  ETV
vector 382  RSUExampleScenario.node[54].veinsmobility  posx  ETV
vector 383  RSUExampleScenario.node[54].veinsmobility  posy  ETV
vector 378  RSUExampleScenario.node[53].veinsmobility  acceleration  ETV
vector 379  RSUExampleScenario.node[53].veinsmobility  co2emission  ETV
vector 384  RSUExampleScenario.node[54].veinsmobility  speed  ETV
vector 389  RSUExampleScenario.node[55].veinsmobility  posx  ETV
vector 390  RSUExampleScenario.node[55].veinsmobility  posy  ETV
vector 385  RSUExampleScenario.node[54].veinsmobility  acceleration  ETV
vector 386  RSUExampleScenario.node[54].veinsmobility  co2emission  ETV
vector 391  RSUExampleScenario.node[55].veinsmobility  speed  ETV
vector 396  RSUExampleScenario.node[56].veinsmobility  posx  ETV
vector 397  RSUExampleScenario.node[56].veinsmobility  posy  ETV
vector 392  RSUExampleScenario.node[55].veinsmobility  acceleration  ETV
vector 393  RSUExampleScenario.node[55].veinsmobility  co2emission  ETV
vector 398  RSUExampleScenario.node[56].veinsmobility  speed  ETV
vector 403  RSUExampleScenario.node[57].veinsmobility  posx  ETV
vector 404  RSUExampleScenario.node[57].veinsmobility  posy  ETV
vector 399  RSUExampleScenario.node[56].veinsmobility  acceleration  ETV
vector 400  RSUExampleScenario.node[56].veinsmobility  co2emission  ETV
vector 405  RSUExampleScenario.node[57].veinsmobility  speed  ETV
vector 406  RSUExampleScenario.node[57].veinsmobility  acceleration  ETV
vector 407  RSUExampleScenario.node[57].veinsmobility  co2emission  ETV
vector 410  RSUExampleScenario.node[58].veinsmobility  posx  ETV
vector 411  RSUExampleScenario.node[58].veinsmobility  posy  ETV
vector 412  RSUExampleScenario.node[58].veinsmobility  speed  ETV
vector 417  RSUExampleScenario.node[59].veinsmobility  posx  ETV
vector 418  RSUExampleScenario.node[59].veinsmobility  posy  ETV
vector 413  RSUExampleScenario.node[58].veinsmobility  acceleration  ETV
vector 414  RSUExampleScenario.node[58].veinsmobility  co2emission  ETV
vector 419  RSUExampleScenario.node[59].veinsmobility  speed  ETV
vector 424  RSUExampleScenario.node[60].veinsmobility  posx  ETV
vector 425  RSUExampleScenario.node[60].veinsmobility  posy  ETV
vector 420  RSUExampleScenario.node[59].veinsmobility  acceleration  ETV
vector 421  RSUExampleScenario.node[59].veinsmobility  co2emission  ETV
vector 426  RSUExampleScenario.node[60].veinsmobility  speed  ETV
vector 427  RSUExampleScenario.node[60].veinsmobility  acceleration  ETV
vector 428  RSUExampleScenario.node[60].veinsmobility  co2emission  ETV
vector 431  RSUExampleScenario.node[61].veinsmobility  posx  ETV
vector 432  RSUExampleScenario.node[61].veinsmobility  posy  ETV
vector 433  RSUExampleScenario.node[61].veinsmobility  speed  ETV
vector 438  RSUExampleScenario.node[62].veinsmobility  posx  ETV
vector 439  RSUExampleScenario.node[62].veinsmobility  posy  ETV
vector 434  RSUExampleScenario.node[61].veinsmobility  acceleration  ETV
vector 435  RSUExampleScenario.node[61].veinsmobility  co2emission  ETV
vector 440  RSUExampleScenario.node[62].veinsmobility  speed  ETV
vector 445  RSUExampleScenario.node[63].veinsmobility  posx  ETV
vector 446  RSUExampleScenario.node[63].veinsmobility  posy  ETV
vector 441  RSUExampleScenario.node[62].veinsmobility  acceleration  ETV
vector 442  RSUExampleScenario.node[62].veinsmobility  co2emission  ETV
vector 447  RSUExampleScenario.node[63].veinsmobility  speed  ETV
vector 448  RSUExampleScenario.node[63].veinsmobility  acceleration  ETV
vector 449  RSUExampleScenario.node[63].veinsmobility  co2emission  ETV
vector 452  RSUExampleScenario.node[64].veinsmobility  posx  ETV
vector 453  RSUExampleScenario.node[64].veinsmobility  posy  ETV
vector 454  RSUExampleScenario.node[64].veinsmobility  speed  ETV
vector 459  RSUExampleScenario.node[65].veinsmobility  posx  ETV
vector 460  RSUExampleScenario.node[65].veinsmobility  posy  ETV
vector 455  RSUExampleScenario.node[64].veinsmobility  acceleration  ETV
vector 456  RSUExampleScenario.node[64].veinsmobility  co2emission  ETV
vector 461  RSUExampleScenario.node[65].veinsmobility  speed  ETV
vector 466  RSUExampleScenario.node[66].veinsmobility  posx  ETV
vector 467  RSUExampleScenario.node[66].veinsmobility  posy  ETV
vector 462  RSUExampleScenario.node[65].veinsmobility  acceleration  ETV
vector 463  RSUExampleScenario.node[65].veinsmobility  co2emission  ETV
vector 468  RSUExampleScenario.node[66].veinsmobility  speed  ETV
vector 469  RSUExampleScenario.node[66].veinsmobility  acceleration  ETV
vector 470  RSUExampleScenario.node[66].veinsmobility  co2emission  ETV
vector 473  RSUExampleScenario.node[67].veinsmobility  posx  ETV
vector 474  RSUExampleScenario.node[67].veinsmobility  posy  ETV
vector 475  RSUExampleScenario.node[67].veinsmobility  speed  ETV
vector 480  RSUExampleScenario.node[68].veinsmobility  posx  ETV
vector 481  RSUExampleScenario.node[68].veinsmobility  posy  ETV
vector 476  RSUExampleScenario.node[67].veinsmobility  acceleration  ETV
vector 477  RSUExampleScenario.node[67].veinsmobility  co2emission  ETV
vector 482  RSUExampleScenario.node[68].veinsmobility  speed  ETV
vector 487  RSUExampleScenario.node[69].veinsmobility  posx  ETV
vector 488  RSUExampleScenario.node[69].veinsmobility  posy  ETV
vector 483  RSUExampleScenario.node[68].veinsmobility  acceleration  ETV
vector 484  RSUExampleScenario.node[68].veinsmobility  co2emission  ETV
vector 489  RSUExampleScenario.node[69].veinsmobility  speed  ETV
vector 494  RSUExampleScenario.node[70].veinsmobility  posx  ETV
vector 495  RSUExampleScenario.node[70].veinsmobility  posy  ETV
vector 490  RSUExampleScenario.node[69].veinsmobility  acceleration  ETV
vector 491  RSUExampleScenario.node[69].veinsmobility  co2emission  ETV
vector 496  RSUExampleScenario.node[70].veinsmobility  speed  ETV
vector 497  RSUExampleScenario.node[70].veinsmobility  acceleration  ETV
vector 498  RSUExampleScenario.node[70].veinsmobility  co2emission  ETV
vector 501  RSUExampleScenario.node[71].veinsmobility  posx  ETV
vector 502  RSUExampleScenario.node[71].veinsmobility  posy  ETV
vector 503  RSUExampleScenario.node[71].veinsmobility  speed  ETV
vector 508  RSUExampleScenario.node[72].veinsmobility  posx  ETV
vector 509  RSUExampleScenario.node[72].veinsmobility  posy  ETV
vector 504  RSUExampleScenario.node[71].veinsmobility  acceleration  ETV
vector 505  RSUExampleScenario.node[71].veinsmobility  co2emission  ETV
vector 510  RSUExampleScenario.node[72].veinsmobility  speed  ETV
vector 515  RSUExampleScenario.node[73].veinsmobility  posx  ETV
vector 516  RSUExampleScenario.node[73].veinsmobility  posy  ETV
vector 511  RSUExampleScenario.node[72].veinsmobility  acceleration  ETV
vector 512  RSUExampleScenario.node[72].veinsmobility  co2emission  ETV
vector 517  RSUExampleScenario.node[73].veinsmobility  speed  ETV
vector 522  RSUExampleScenario.node[74].veinsmobility  posx  ETV
vector 523  RSUExampleScenario.node[74].veinsmobility  posy  ETV
vector 518  RSUExampleScenario.node[73].veinsmobility  acceleration  ETV
vector 519  RSUExampleScenario.node[73].veinsmobility  co2emission  ETV
vector 524  RSUExampleScenario.node[74].veinsmobility  speed  ETV
vector 525  RSUExampleScenario.node[74].veinsmobility  acceleration  ETV
vector 526  RSUExampleScenario.node[74].veinsmobility  co2emission  ETV
vector 529  RSUExampleScenario.node[75].veinsmobility  posx  ETV
vector 530  RSUExampleScenario.node[75].veinsmobility  posy  ETV
vector 531  RSUExampleScenario.node[75].veinsmobility  speed  ETV
vector 536  RSUExampleScenario.node[76].veinsmobility  posx  ETV
vector 537  RSUExampleScenario.node[76].veinsmobility  posy  ETV
vector 532  RSUExampleScenario.node[75].veinsmobility  acceleration  ETV
vector 533  RSUExampleScenario.node[75].veinsmobility  co2emission  ETV
vector 538  RSUExampleScenario.node[76].veinsmobility  speed  ETV
vector 543  RSUExampleScenario.node[77].veinsmobility  posx  ETV
vector 544  RSUExampleScenario.node[77].veinsmobility  posy  ETV
vector 539  RSUExampleScenario.node[76].veinsmobility  acceleration  ETV
vector 540  RSUExampleScenario.node[76].veinsmobility  co2emission  ETV
vector 545  RSUExampleScenario.node[77].veinsmobility  speed  ETV
vector 550  RSUExampleScenario.node[78].veinsmobility  posx  ETV
vector 551  RSUExampleScenario.node[78].veinsmobility  posy  ETV
vector 546  RSUExampleScenario.node[77].veinsmobility  acceleration  ETV
vector 547  RSUExampleScenario.node[77].veinsmobility  co2emission  ETV
vector 552  RSUExampleScenario.node[78].veinsmobility  speed  ETV
vector 553  RSUExampleScenario.node[78].veinsmobility  acceleration  ETV
vector 554  RSUExampleScenario.node[78].veinsmobility  co2emission  ETV
vector 557  RSUExampleScenario.node[79].veinsmobility  posx  ETV
vector 558  RSUExampleScenario.node[79].veinsmobility  posy  ETV
vector 559  RSUExampleScenario.node[79].veinsmobility  speed  ETV
vector 564  RSUExampleScenario.node[80].veinsmobility  posx  ETV
vector 565  RSUExampleScenario.node[80].veinsmobility  posy  ETV
vector 560  RSUExampleScenario.node[79].veinsmobility  acceleration  ETV
vector 561  RSUExampleScenario.node[79].veinsmobility  co2emission  ETV
vector 566  RSUExampleScenario.node[80].veinsmobility  speed  ETV
vector 567  RSUExampleScenario.node[80].veinsmobility  acceleration  ETV
vector 568  RSUExampleScenario.node[80].veinsmobility  co2emission  ETV
vector 571  RSUExampleScenario.node[81].veinsmobility  posx  ETV
vector 572  RSUExampleScenario.node[81].veinsmobility  posy  ETV
vector 573  RSUExampleScenario.node[81].veinsmobility  speed  ETV
vector 578  RSUExampleScenario.node[82].veinsmobility  posx  ETV
vector 579  RSUExampleScenario.node[82].veinsmobility  posy  ETV
vector 574  RSUExampleScenario.node[81].veinsmobility  acceleration  ETV
vector 575  RSUExampleScenario.node[81].veinsmobility  co2emission  ETV
vector 580  RSUExampleScenario.node[82].veinsmobility  speed  ETV
vector 585  RSUExampleScenario.node[83].veinsmobility  posx  ETV
vector 586  RSUExampleScenario.node[83].veinsmobility  posy  ETV
vector 581  RSUExampleScenario.node[82].veinsmobility  acceleration  ETV
vector 582  RSUExampleScenario.node[82].veinsmobility  co2emission  ETV
vector 587  RSUExampleScenario.node[83].veinsmobility  speed  ETV
vector 588  RSUExampleScenario.node[83].veinsmobility  acceleration  ETV
vector 589  RSUExampleScenario.node[83].veinsmobility  co2emission  ETV
vector 592  RSUExampleScenario.node[84].veinsmobility  posx  ETV
vector 593  RSUExampleScenario.node[84].veinsmobility  posy  ETV
vector 594  RSUExampleScenario.node[84].veinsmobility  speed  ETV
vector 599  RSUExampleScenario.node[85].veinsmobility  posx  ETV
vector 600  RSUExampleScenario.node[85].veinsmobility  posy  ETV
vector 595  RSUExampleScenario.node[84].veinsmobility  acceleration  ETV
vector 596  RSUExampleScenario.node[84].veinsmobility  co2emission  ETV
vector 601  RSUExampleScenario.node[85].veinsmobility  speed  ETV
vector 602  RSUExampleScenario.node[85].veinsmobility  acceleration  ETV
vector 603  RSUExampleScenario.node[85].veinsmobility  co2emission  ETV
vector 606  RSUExampleScenario.node[86].veinsmobility  posx  ETV
vector 607  RSUExampleScenario.node[86].veinsmobility  posy  ETV
vector 608  RSUExampleScenario.node[86].veinsmobility  speed  ETV
vector 613  RSUExampleScenario.node[87].veinsmobility  posx  ETV
vector 614  RSUExampleScenario.node[87].veinsmobility  posy  ETV
vector 609  RSUExampleScenario.node[86].veinsmobility  acceleration  ETV
vector 610  RSUExampleScenario.node[86].veinsmobility  co2emission  ETV
vector 615  RSUExampleScenario.node[87].veinsmobility  speed  ETV
vector 616  RSUExampleScenario.node[87].veinsmobility  acceleration  ETV
vector 617  RSUExampleScenario.node[87].veinsmobility  co2emission  ETV
vector 620  RSUExampleScenario.node[88].veinsmobility  posx  ETV
vector 621  RSUExampleScenario.node[88].veinsmobility  posy  ETV
vector 622  RSUExampleScenario.node[88].veinsmobility  speed  ETV
vector 627  RSUExampleScenario.node[89].veinsmobility  posx  ETV
vector 628  RSUExampleScenario.node[89].veinsmobility  posy  ETV
vector 623  RSUExampleScenario.node[88].veinsmobility  acceleration  ETV
vector 624  RSUExampleScenario.node[88].veinsmobility  co2emission  ETV
vector 629  RSUExampleScenario.node[89].veinsmobility  speed  ETV
vector 630  RSUExampleScenario.node[89].veinsmobility  acceleration  ETV
vector 631  RSUExampleScenario.node[89].veinsmobility  co2emission  ETV
vector 634  RSUExampleScenario.node[90].veinsmobility  posx  ETV
vector 635  RSUExampleScenario.node[90].veinsmobility  posy  ETV
vector 636  RSUExampleScenario.node[90].veinsmobility  speed  ETV
vector 641  RSUExampleScenario.node[91].veinsmobility  posx  ETV
vector 642  RSUExampleScenario.node[91].veinsmobility  posy  ETV
vector 637  RSUExampleScenario.node[90].veinsmobility  acceleration  ETV
vector 638  RSUExampleScenario.node[90].veinsmobility  co2emission  ETV
vector 643  RSUExampleScenario.node[91].veinsmobility  speed  ETV
vector 648  RSUExampleScenario.node[92].veinsmobility  posx  ETV
vector 649  RSUExampleScenario.node[92].veinsmobility  posy  ETV
vector 644  RSUExampleScenario.node[91].veinsmobility  acceleration  ETV
vector 645  RSUExampleScenario.node[91].veinsmobility  co2emission  ETV
vector 650  RSUExampleScenario.node[92].veinsmobility  speed  ETV
vector 651  RSUExampleScenario.node[92].veinsmobility  acceleration  ETV
vector 652  RSUExampleScenario.node[92].veinsmobility  co2emission  ETV
vector 655  RSUExampleScenario.node[93].veinsmobility  posx  ETV
vector 656  RSUExampleScenario.node[93].veinsmobility  posy  ETV
vector 657  RSUExampleScenario.node[93].veinsmobility  speed  ETV
vector 658  RSUExampleScenario.node[93].veinsmobility  acceleration  ETV
vector 659  RSUExampleScenario.node[93].veinsmobility  co2emission  ETV
vector 662  RSUExampleScenario.node[94].veinsmobility  posx  ETV
vector 663  RSUExampleScenario.node[94].veinsmobility  posy  ETV
vector 664  RSUExampleScenario.node[94].veinsmobility  speed  ETV
vector 665  RSUExampleScenario.node[94].veinsmobility  acceleration  ETV
vector 666  RSUExampleScenario.node[94].veinsmobility  co2emission  ETV
vector 669  RSUExampleScenario.node[95].veinsmobility  posx  ETV
vector 670  RSUExampleScenario.node[95].veinsmobility  posy  ETV
vector 671  RSUExampleScenario.node[95].veinsmobility  speed  ETV
vector 672  RSUExampleScenario.node[95].veinsmobility  acceleration  ETV
vector 673  RSUExampleScenario.node[95].veinsmobility  co2emission  ETV
vector 676  RSUExampleScenario.node[96].veinsmobility  posx  ETV
vector 677  RSUExampleScenario.node[96].veinsmobility  posy  ETV
vector 678  RSUExampleScenario.node[96].veinsmobility  speed  ETV
vector 679  RSUExampleScenario.node[96].veinsmobility  acceleration  ETV
vector 680  RSUExampleScenario.node[96].veinsmobility  co2emission  ETV
vector 683  RSUExampleScenario.node[97].veinsmobility  posx  ETV
vector 684  RSUExampleScenario.node[97].veinsmobility  posy  ETV
vector 685  RSUExampleScenario.node[97].veinsmobility  speed  ETV
vector 686  RSUExampleScenario.node[97].veinsmobility  acceleration  ETV
vector 687  RSUExampleScenario.node[97].veinsmobility  co2emission  ETV
vector 690  RSUExampleScenario.node[98].veinsmobility  posx  ETV
vector 691  RSUExampleScenario.node[98].veinsmobility  posy  ETV
vector 692  RSUExampleScenario.node[98].veinsmobility  speed  ETV
vector 693  RSUExampleScenario.node[98].veinsmobility  acceleration  ETV
vector 694  RSUExampleScenario.node[98].veinsmobility  co2emission  ETV
vector 697  RSUExampleScenario.node[99].veinsmobility  posx  ETV
vector 698  RSUExampleScenario.node[99].veinsmobility  posy  ETV
vector 699  RSUExampleScenario.node[99].veinsmobility  speed  ETV
vector 700  RSUExampleScenario.node[99].veinsmobility  acceleration  ETV
vector 701  RSUExampleScenario.node[99].veinsmobility  co2emission  ETV
vector 704  RSUExampleScenario.node[100].veinsmobility  posx  ETV
vector 705  RSUExampleScenario.node[100].veinsmobility  posy  ETV
vector 706  RSUExampleScenario.node[100].veinsmobility  speed  ETV
vector 711  RSUExampleScenario.node[101].veinsmobility  posx  ETV
vector 712  RSUExampleScenario.node[101].veinsmobility  posy  ETV
vector 707  RSUExampleScenario.node[100].veinsmobility  acceleration  ETV
vector 708  RSUExampleScenario.node[100].veinsmobility  co2emission  ETV
vector 713  RSUExampleScenario.node[101].veinsmobility  speed  ETV
vector 718  RSUExampleScenario.node[102].veinsmobility  posx  ETV
vector 719  RSUExampleScenario.node[102].veinsmobility  posy  ETV
vector 714  RSUExampleScenario.node[101].veinsmobility  acceleration  ETV
vector 715  RSUExampleScenario.node[101].veinsmobility  co2emission  ETV
vector 720  RSUExampleScenario.node[102].veinsmobility  speed  ETV
vector 725  RSUExampleScenario.node[103].veinsmobility  posx  ETV
vector 726  RSUExampleScenario.node[103].veinsmobility  posy  ETV
vector 721  RSUExampleScenario.node[102].veinsmobility  acceleration  ETV
vector 722  RSUExampleScenario.node[102].veinsmobility  co2emission  ETV
vector 727  RSUExampleScenario.node[103].veinsmobility  speed  ETV
vector 732  RSUExampleScenario.node[104].veinsmobility  posx  ETV
vector 733  RSUExampleScenario.node[104].veinsmobility  posy  ETV
vector 728  RSUExampleScenario.node[103].veinsmobility  acceleration  ETV
vector 729  RSUExampleScenario.node[103].veinsmobility  co2emission  ETV
vector 734  RSUExampleScenario.node[104].veinsmobility  speed  ETV
vector 739  RSUExampleScenario.node[105].veinsmobility  posx  ETV
vector 740  RSUExampleScenario.node[105].veinsmobility  posy  ETV
vector 735  RSUExampleScenario.node[104].veinsmobility  acceleration  ETV
vector 736  RSUExampleScenario.node[104].veinsmobility  co2emission  ETV
vector 741  RSUExampleScenario.node[105].veinsmobility  speed  ETV
vector 746  RSUExampleScenario.node[106].veinsmobility  posx  ETV
vector 747  RSUExampleScenario.node[106].veinsmobility  posy  ETV
vector 742  RSUExampleScenario.node[105].veinsmobility  acceleration  ETV
vector 743  RSUExampleScenario.node[105].veinsmobility  co2emission  ETV
vector 748  RSUExampleScenario.node[106].veinsmobility  speed  ETV
vector 749  RSUExampleScenario.node[106].veinsmobility  acceleration  ETV
vector 750  RSUExampleScenario.node[106].veinsmobility  co2emission  ETV
vector 753  RSUExampleScenario.node[107].veinsmobility  posx  ETV
vector 754  RSUExampleScenario.node[107].veinsmobility  posy  ETV
vector 755  RSUExampleScenario.node[107].veinsmobility  speed  ETV
vector 760  RSUExampleScenario.node[108].veinsmobility  posx  ETV
vector 761  RSUExampleScenario.node[108].veinsmobility  posy  ETV
vector 756  RSUExampleScenario.node[107].veinsmobility  acceleration  ETV
vector 757  RSUExampleScenario.node[107].veinsmobility  co2emission  ETV
vector 762  RSUExampleScenario.node[108].veinsmobility  speed  ETV
vector 767  RSUExampleScenario.node[109].veinsmobility  posx  ETV
vector 768  RSUExampleScenario.node[109].veinsmobility  posy  ETV
vector 763  RSUExampleScenario.node[108].veinsmobility  acceleration  ETV
vector 764  RSUExampleScenario.node[108].veinsmobility  co2emission  ETV
vector 769  RSUExampleScenario.node[109].veinsmobility  speed  ETV
vector 774  RSUExampleScenario.node[110].veinsmobility  posx  ETV
vector 775  RSUExampleScenario.node[110].veinsmobility  posy  ETV
vector 770  RSUExampleScenario.node[109].veinsmobility  acceleration  ETV
vector 771  RSUExampleScenario.node[109].veinsmobility  co2emission  ETV
vector 776  RSUExampleScenario.node[110].veinsmobility  speed  ETV
vector 781  RSUExampleScenario.node[111].veinsmobility  posx  ETV
vector 782  RSUExampleScenario.node[111].veinsmobility  posy  ETV
vector 777  RSUExampleScenario.node[110].veinsmobility  acceleration  ETV
vector 778  RSUExampleScenario.node[110].veinsmobility  co2emission  ETV
vector 783  RSUExampleScenario.node[111].veinsmobility  speed  ETV
vector 784  RSUExampleScenario.node[111].veinsmobility  acceleration  ETV
vector 785  RSUExampleScenario.node[111].veinsmobility  co2emission  ETV
vector 788  RSUExampleScenario.node[112].veinsmobility  posx  ETV
vector 789  RSUExampleScenario.node[112].veinsmobility  posy  ETV
vector 790  RSUExampleScenario.node[112].veinsmobility  speed  ETV
vector 795  RSUExampleScenario.node[113].veinsmobility  posx  ETV
vector 796  RSUExampleScenario.node[113].veinsmobility  posy  ETV
vector 791  RSUExampleScenario.node[112].veinsmobility  acceleration  ETV
vector 792  RSUExampleScenario.node[112].veinsmobility  co2emission  ETV
vector 797  RSUExampleScenario.node[113].veinsmobility  speed  ETV
vector 802  RSUExampleScenario.node[114].veinsmobility  posx  ETV
vector 803  RSUExampleScenario.node[114].veinsmobility  posy  ETV
vector 798  RSUExampleScenario.node[113].veinsmobility  acceleration  ETV
vector 799  RSUExampleScenario.node[113].veinsmobility  co2emission  ETV
vector 804  RSUExampleScenario.node[114].veinsmobility  speed  ETV
vector 805  RSUExampleScenario.node[114].veinsmobility  acceleration  ETV
vector 806  RSUExampleScenario.node[114].veinsmobility  co2emission  ETV
vector 809  RSUExampleScenario.node[115].veinsmobility  posx  ETV
vector 810  RSUExampleScenario.node[115].veinsmobility  posy  ETV
vector 811  RSUExampleScenario.node[115].veinsmobility  speed  ETV
vector 816  RSUExampleScenario.node[116].veinsmobility  posx  ETV
vector 817  RSUExampleScenario.node[116].veinsmobility  posy  ETV
vector 812  RSUExampleScenario.node[115].veinsmobility  acceleration  ETV
vector 813  RSUExampleScenario.node[115].veinsmobility  co2emission  ETV
vector 818  RSUExampleScenario.node[116].veinsmobility  speed  ETV
vector 819  RSUExampleScenario.node[116].veinsmobility  acceleration  ETV
vector 820  RSUExampleScenario.node[116].veinsmobility  co2emission  ETV
vector 823  RSUExampleScenario.node[117].veinsmobility  posx  ETV
vector 824  RSUExampleScenario.node[117].veinsmobility  posy  ETV
vector 825  RSUExampleScenario.node[117].veinsmobility  speed  ETV
vector 830  RSUExampleScenario.node[118].veinsmobility  posx  ETV
vector 831  RSUExampleScenario.node[118].veinsmobility  posy  ETV
vector 826  RSUExampleScenario.node[117].veinsmobility  acceleration  ETV
vector 827  RSUExampleScenario.node[117].veinsmobility  co2emission  ETV
vector 832  RSUExampleScenario.node[118].veinsmobility  speed  ETV
vector 833  RSUExampleScenario.node[118].veinsmobility  acceleration  ETV
vector 834  RSUExampleScenario.node[118].veinsmobility  co2emission  ETV
vector 837  RSUExampleScenario.node[119].veinsmobility  posx  ETV
vector 838  RSUExampleScenario.node[119].veinsmobility  posy  ETV
vector 839  RSUExampleScenario.node[119].veinsmobility  speed  ETV
vector 844  RSUExampleScenario.node[120].veinsmobility  posx  ETV
vector 845  RSUExampleScenario.node[120].veinsmobility  posy  ETV
vector 840  RSUExampleScenario.node[119].veinsmobility  acceleration  ETV
vector 841  RSUExampleScenario.node[119].veinsmobility  co2emission  ETV
vector 846  RSUExampleScenario.node[120].veinsmobility  speed  ETV
vector 847  RSUExampleScenario.node[120].veinsmobility  acceleration  ETV
vector 848  RSUExampleScenario.node[120].veinsmobility  co2emission  ETV
vector 851  RSUExampleScenario.node[121].veinsmobility  posx  ETV
vector 852  RSUExampleScenario.node[121].veinsmobility  posy  ETV
vector 853  RSUExampleScenario.node[121].veinsmobility  speed  ETV
vector 854  RSUExampleScenario.node[121].veinsmobility  acceleration  ETV
vector 855  RSUExampleScenario.node[121].veinsmobility  co2emission  ETV
vector 858  RSUExampleScenario.node[122].veinsmobility  posx  ETV
vector 859  RSUExampleScenario.node[122].veinsmobility  posy  ETV
vector 860  RSUExampleScenario.node[122].veinsmobility  speed  ETV
vector 865  RSUExampleScenario.node[123].veinsmobility  posx  ETV
vector 866  RSUExampleScenario.node[123].veinsmobility  posy  ETV
vector 861  RSUExampleScenario.node[122].veinsmobility  acceleration  ETV
vector 862  RSUExampleScenario.node[122].veinsmobility  co2emission  ETV
vector 867  RSUExampleScenario.node[123].veinsmobility  speed  ETV
vector 868  RSUExampleScenario.node[123].veinsmobility  acceleration  ETV
vector 869  RSUExampleScenario.node[123].veinsmobility  co2emission  ETV
vector 872  RSUExampleScenario.node[124].veinsmobility  posx  ETV
vector 873  RSUExampleScenario.node[124].veinsmobility  posy  ETV
vector 874  RSUExampleScenario.node[124].veinsmobility  speed  ETV
vector 875  RSUExampleScenario.node[124].veinsmobility  acceleration  ETV
vector 876  RSUExampleScenario.node[124].veinsmobility  co2emission  ETV
vector 879  RSUExampleScenario.node[125].veinsmobility  posx  ETV
vector 880  RSUExampleScenario.node[125].veinsmobility  posy  ETV
vector 881  RSUExampleScenario.node[125].veinsmobility  speed  ETV
vector 882  RSUExampleScenario.node[125].veinsmobility  acceleration  ETV
vector 883  RSUExampleScenario.node[125].veinsmobility  co2emission  ETV
vector 886  RSUExampleScenario.node[126].veinsmobility  posx  ETV
vector 887  RSUExampleScenario.node[126].veinsmobility  posy  ETV
vector 888  RSUExampleScenario.node[126].veinsmobility  speed  ETV
vector 889  RSUExampleScenario.node[126].veinsmobility  acceleration  ETV
vector 890  RSUExampleScenario.node[126].veinsmobility  co2emission  ETV
vector 893  RSUExampleScenario.node[127].veinsmobility  posx  ETV
vector 894  RSUExampleScenario.node[127].veinsmobility  posy  ETV
vector 895  RSUExampleScenario.node[127].veinsmobility  speed  ETV
vector 896  RSUExampleScenario.node[127].veinsmobility  acceleration  ETV
vector 897  RSUExampleScenario.node[127].veinsmobility  co2emission  ETV
vector 900  RSUExampleScenario.node[128].veinsmobility  posx  ETV
vector 901  RSUExampleScenario.node[128].veinsmobility  posy  ETV
vector 902  RSUExampleScenario.node[128].veinsmobility  speed  ETV
vector 907  RSUExampleScenario.node[129].veinsmobility  posx  ETV
vector 908  RSUExampleScenario.node[129].veinsmobility  posy  ETV
vector 903  RSUExampleScenario.node[128].veinsmobility  acceleration  ETV
vector 904  RSUExampleScenario.node[128].veinsmobility  co2emission  ETV
vector 909  RSUExampleScenario.node[129].veinsmobility  speed  ETV
vector 910  RSUExampleScenario.node[129].veinsmobility  acceleration  ETV
vector 911  RSUExampleScenario.node[129].veinsmobility  co2emission  ETV
vector 914  RSUExampleScenario.node[130].veinsmobility  posx  ETV
vector 915  RSUExampleScenario.node[130].veinsmobility  posy  ETV
vector 916  RSUExampleScenario.node[130].veinsmobility  speed  ETV
vector 917  RSUExampleScenario.node[130].veinsmobility  acceleration  ETV
vector 918  RSUExampleScenario.node[130].veinsmobility  co2emission  ETV
vector 921  RSUExampleScenario.node[131].veinsmobility  posx  ETV
vector 922  RSUExampleScenario.node[131].veinsmobility  posy  ETV
vector 923  RSUExampleScenario.node[131].veinsmobility  speed  ETV
vector 928  RSUExampleScenario.node[132].veinsmobility  posx  ETV
vector 929  RSUExampleScenario.node[132].veinsmobility  posy  ETV
vector 924  RSUExampleScenario.node[131].veinsmobility  acceleration  ETV
vector 925  RSUExampleScenario.node[131].veinsmobility  co2emission  ETV
vector 930  RSUExampleScenario.node[132].veinsmobility  speed  ETV
vector 931  RSUExampleScenario.node[132].veinsmobility  acceleration  ETV
vector 932  RSUExampleScenario.node[132].veinsmobility  co2emission  ETV
vector 935  RSUExampleScenario.node[133].veinsmobility  posx  ETV
vector 936  RSUExampleScenario.node[133].veinsmobility  posy  ETV
vector 937  RSUExampleScenario.node[133].veinsmobility  speed  ETV
vector 938  RSUExampleScenario.node[133].veinsmobility  acceleration  ETV
vector 939  RSUExampleScenario.node[133].veinsmobility  co2emission  ETV
vector 942  RSUExampleScenario.node[134].veinsmobility  posx  ETV
vector 943  RSUExampleScenario.node[134].veinsmobility  posy  ETV
vector 944  RSUExampleScenario.node[134].veinsmobility  speed  ETV
vector 945  RSUExampleScenario.node[134].veinsmobility  acceleration  ETV
vector 946  RSUExampleScenario.node[134].veinsmobility  co2emission  ETV
vector 949  RSUExampleScenario.node[135].veinsmobility  posx  ETV
vector 950  RSUExampleScenario.node[135].veinsmobility  posy  ETV
vector 951  RSUExampleScenario.node[135].veinsmobility  speed  ETV
vector 956  RSUExampleScenario.node[136].veinsmobility  posx  ETV
vector 957  RSUExampleScenario.node[136].veinsmobility  posy  ETV
vector 952  RSUExampleScenario.node[135].veinsmobility  acceleration  ETV
vector 953  RSUExampleScenario.node[135].veinsmobility  co2emission  ETV
vector 958  RSUExampleScenario.node[136].veinsmobility  speed  ETV
vector 959  RSUExampleScenario.node[136].veinsmobility  acceleration  ETV
vector 960  RSUExampleScenario.node[136].veinsmobility  co2emission  ETV
vector 963  RSUExampleScenario.node[137].veinsmobility  posx  ETV
vector 964  RSUExampleScenario.node[137].veinsmobility  posy  ETV
vector 965  RSUExampleScenario.node[137].veinsmobility  speed  ETV
vector 966  RSUExampleScenario.node[137].veinsmobility  acceleration  ETV
vector 967  RSUExampleScenario.node[137].veinsmobility  co2emission  ETV
vector 970  RSUExampleScenario.node[138].veinsmobility  posx  ETV
vector 971  RSUExampleScenario.node[138].veinsmobility  posy  ETV
vector 972  RSUExampleScenario.node[138].veinsmobility  speed  ETV
vector 973  RSUExampleScenario.node[138].veinsmobility  acceleration  ETV
vector 974  RSUExampleScenario.node[138].veinsmobility  co2emission  ETV
vector 977  RSUExampleScenario.node[139].veinsmobility  posx  ETV
vector 978  RSUExampleScenario.node[139].veinsmobility  posy  ETV
vector 979  RSUExampleScenario.node[139].veinsmobility  speed  ETV
vector 980  RSUExampleScenario.node[139].veinsmobility  acceleration  ETV
vector 981  RSUExampleScenario.node[139].veinsmobility  co2emission  ETV
8	50881 7154 4 31592 3 329 327 0.973 33.37627103736 946.31605659201 8346.8774574323
7	58035 7271 4 31592 3 329 327 -4.5 5.171069820486 4.0563935460101 836.66006266728
6	65306 7020 3 31592 2 329 328 0 27.768710480146 3405.3707260229 61550.434188878
5	72326 8601 2 31592 1 329 329 1216.9385435237 2120.7953938423 504131.8373277 792089550.42134
4	80927 8679 2 31592 1 329 329 207.40605012828 2450.4278615726 427664.63703049 728141168.47507
vector 984  RSUExampleScenario.node[140].veinsmobility  posx  ETV
vector 985  RSUExampleScenario.node[140].veinsmobility  posy  ETV
vector 986  RSUExampleScenario.node[140].veinsmobility  speed  ETV
vector 987  RSUExampleScenario.node[140].veinsmobility  acceleration  ETV
vector 988  RSUExampleScenario.node[140].veinsmobility  co2emission  ETV
vector 991  RSUExampleScenario.node[141].veinsmobility  posx  ETV
vector 992  RSUExampleScenario.node[141].veinsmobility  posy  ETV
vector 993  RSUExampleScenario.node[141].veinsmobility  speed  ETV
vector 994  RSUExampleScenario.node[141].veinsmobility  acceleration  ETV
vector 995  RSUExampleScenario.node[141].veinsmobility  co2emission  ETV
vector 998  RSUExampleScenario.node[142].veinsmobility  posx  ETV
vector 999  RSUExampleScenario.node[142].veinsmobility  posy  ETV
vector 1000  RSUExampleScenario.node[142].veinsmobility  speed  ETV
vector 1001  RSUExampleScenario.node[142].veinsmobility  acceleration  ETV
vector 1002  RSUExampleScenario.node[142].veinsmobility  co2emission  ETV
vector 1005  RSUExampleScenario.node[143].veinsmobility  posx  ETV
vector 1006  RSUExampleScenario.node[143].veinsmobility  posy  ETV
vector 1007  RSUExampleScenario.node[143].veinsmobility  speed  ETV
vector 1008  RSUExampleScenario.node[143].veinsmobility  acceleration  ETV
vector 1009  RSUExampleScenario.node[143].veinsmobility  co2emission  ETV
15	90998 8049 6 39018 5 360 356 0.973 15.069549340392 856.73560423419 3916.4545479123
14	99047 8462 6 39018 5 360 356 -1.5 1.8301951859321 4.7463484714996 306.75796607927
13	107509 8438 5 39018 4 360 357 0 27.778188040318 3400.7242243803 56339.186716777
12	115947 9832 4 39018 3 360 358 1218.704717489 2120.893814832 570914.08692501 943706685.52578
11	125779 9823 4 39018 3 360 358 203.94781871664 2450.3140188782 504644.29015537 923569799.10121
22	135602 8814 8 39198 7 404 398 0.973 30.813682513993 959.64072444008 6617.2271714391
21	144416 9064 8 39198 7 404 398 -4.5 5.0165304572117 6.4121606386426 666.6920318678
20	153480 8788 7 39198 6 404 399 0 27.777677725879 3401.6206163569 58442.091134404
19	162268 11086 6 39198 5 404 400 1216.3723620363 2120.5535120554 635505.07800654 1043292327.4773
18	173354 11083 6 39198 5 404 400 210.6728264431 2450.0954562895 535861.95179151 971058803.07496
29	184437 8844 10 39207 9 407 399 -0.59656284061144 30.360151436556 1014.2299329317 8207.946092838
28	193281 9107 10 39207 9 407 399 -4.5 5.1017067492299 7.3116361575529 841.23054615444
27	202388 8853 9 39207 8 407 400 0 27.750909077181 3406.9116923169 58503.604799775
26	211241 11129 8 39207 7 407 401 1217.3116323501 2120.8036144441 642027.64041111 1059999037.6036
25	222370 11081 8 39207 7 407 401 205.7665247164 2450.3857637221 561083.81434404 1007126642.1175
43	233451 9118 13 39271 12 421 410 0.973 28.913408316741 1008.9715580083 8319.5143453501
42	242569 9522 13 39271 12 421 410 -4.5 5.0407783811958 2.6255788083633 798.73548218145
41	252091 9163 12 39271 11 421 411 0 27.763528873604 3398.2253421388 58817.003080587
40	261254 11424 11 39271 10 421 412 1218.0323901474 2120.3819291405 655043.08030869 1075632496.703
39	272678 11464 11 39271 10 421 412 210.73415912536 2450.3526944926 579440.98622611 1037234220.7696
36	284142 9215 11 39284 10 424 415 0.973 29.783652142168 1019.6558620994 7945.5660749365
35	293357 9647 11 39284 10 424 415 -4.5 5.1017860706989 7.273008786412 792.70987745347
34	303004 9334 10 39284 9 424 416 0 27.75182667057 3404.0929893401 57856.679929714
33	312338 11595 9 39284 8 424 417 1217.1555803483 2120.3836950734 653134.71837462 1061173840.1951
32	323933 11605 9 39284 8 424 417 207.48039943725 2450.4834751619 587594.23568778 1039804426.9133
71	335538 9656 20 39416 19 456 438 0.973 28.377196624304 1071.3981561681 8749.3435708437
70	345194 10357 20 39416 19 456 438 -4.5 5.1608984425664 7.4358444875333 831.20348523765
69	355551 9958 19 39416 18 456 439 0 27.76204985423 3404.7227987946 56950.014037415
68	365509 12313 18 39416 17 456 440 1216.2214748608 2120.5161766419 689062.00707729 1120590155.9603
67	377822 12308 18 39416 17 456 440 208.11260872323 2450.3971729765 622508.01280964 1111342976.2164
141	390130 10333 37 39468 36 469 434 0.973 32.050580832304 1057.3399788123 8863.1831765587
140	400463 10808 37 39468 36 469 434 -4.5 5.2194411147945 5.8493966746401 821.77527303145
139	411271 10437 36 39468 35 469 435 0 27.77800252744 3401.8649416709 56591.279845324
138	421708 12694 35 39468 34 469 436 1216.2737523597 2120.9505355572 692647.50006875 1144707087.3106
137	434402 12688 35 39468 34 469 436 210.79453524214 2450.6423160124 628866.3651263 1161918798.9137
106	447090 10338 30 39481 29 472 444 0.973 25.436283733344 1019.0372372166 6686.2622984706
105	457428 11001 30 39481 29 472 444 -4.0437505825708 5.084406721758 6.3137719060718 649.19557058824
104	468429 10557 29 39481 28 472 445 0 27.770110275866 3403.7298374373 55335.866035368
103	478986 12969 28 39481 27 472 446 1216.2901910618 2120.8700924637 703648.97653533 1153282478.2089
102	491955 12973 28 39481 27 472 446 207.39921186119 2450.2557112055 641648.58391825 1164200032.0066
vector 1012  RSUExampleScenario.node[144].veinsmobility  posx  ETV
vector 1013  RSUExampleScenario.node[144].veinsmobility  posy  ETV
vector 1019  RSUExampleScenario.node[145].veinsmobility  posx  ETV
vector 1020  RSUExampleScenario.node[145].veinsmobility  posy  ETV
vector 1014  RSUExampleScenario.node[144].veinsmobility  speed  ETV
vector 1015  RSUExampleScenario.node[144].veinsmobility  acceleration  ETV
vector 1016  RSUExampleScenario.node[144].veinsmobility  co2emission  ETV
vector 1021  RSUExampleScenario.node[145].veinsmobility  speed  ETV
vector 1026  RSUExampleScenario.node[146].veinsmobility  posx  ETV
vector 1027  RSUExampleScenario.node[146].veinsmobility  posy  ETV
vector 1022  RSUExampleScenario.node[145].veinsmobility  acceleration  ETV
vector 1023  RSUExampleScenario.node[145].veinsmobility  co2emission  ETV
vector 1033  RSUExampleScenario.node[147].veinsmobility  posx  ETV
vector 1034  RSUExampleScenario.node[147].veinsmobility  posy  ETV
vector 1028  RSUExampleScenario.node[146].veinsmobility  speed  ETV
vector 1040  RSUExampleScenario.node[148].veinsmobility  posx  ETV
vector 1041  RSUExampleScenario.node[148].veinsmobility  posy  ETV
vector 1029  RSUExampleScenario.node[146].veinsmobility  acceleration  ETV
vector 1030  RSUExampleScenario.node[146].veinsmobility  co2emission  ETV
vector 1035  RSUExampleScenario.node[147].veinsmobility  speed  ETV
vector 1036  RSUExampleScenario.node[147].veinsmobility  acceleration  ETV
vector 1037  RSUExampleScenario.node[147].veinsmobility  co2emission  ETV
vector 1042  RSUExampleScenario.node[148].veinsmobility  speed  ETV
vector 1047  RSUExampleScenario.node[149].veinsmobility  posx  ETV
vector 1048  RSUExampleScenario.node[149].veinsmobility  posy  ETV
vector 1043  RSUExampleScenario.node[148].veinsmobility  acceleration  ETV
vector 1044  RSUExampleScenario.node[148].veinsmobility  co2emission  ETV
vector 1054  RSUExampleScenario.node[150].veinsmobility  posx  ETV
vector 1055  RSUExampleScenario.node[150].veinsmobility  posy  ETV
vector 1049  RSUExampleScenario.node[149].veinsmobility  speed  ETV
vector 1050  RSUExampleScenario.node[149].veinsmobility  acceleration  ETV
vector 1051  RSUExampleScenario.node[149].veinsmobility  co2emission  ETV
vector 1056  RSUExampleScenario.node[150].veinsmobility  speed  ETV
vector 1061  RSUExampleScenario.node[151].veinsmobility  posx  ETV
vector 1062  RSUExampleScenario.node[151].veinsmobility  posy  ETV
vector 1057  RSUExampleScenario.node[150].veinsmobility  acceleration  ETV
vector 1058  RSUExampleScenario.node[150].veinsmobility  co2emission  ETV
vector 1068  RSUExampleScenario.node[152].veinsmobility  posx  ETV
vector 1069  RSUExampleScenario.node[152].veinsmobility  posy  ETV
vector 1063  RSUExampleScenario.node[151].veinsmobility  speed  ETV
vector 1075  RSUExampleScenario.node[153].veinsmobility  posx  ETV
vector 1076  RSUExampleScenario.node[153].veinsmobility  posy  ETV
vector 1064  RSUExampleScenario.node[151].veinsmobility  acceleration  ETV
vector 1065  RSUExampleScenario.node[151].veinsmobility  co2emission  ETV
vector 1070  RSUExampleScenario.node[152].veinsmobility  speed  ETV
vector 1071  RSUExampleScenario.node[152].veinsmobility  acceleration  ETV
vector 1072  RSUExampleScenario.node[152].veinsmobility  co2emission  ETV
vector 1077  RSUExampleScenario.node[153].veinsmobility  speed  ETV
vector 1082  RSUExampleScenario.node[154].veinsmobility  posx  ETV
vector 1083  RSUExampleScenario.node[154].veinsmobility  posy  ETV
vector 1078  RSUExampleScenario.node[153].veinsmobility  acceleration  ETV
vector 1079  RSUExampleScenario.node[153].veinsmobility  co2emission  ETV
vector 1089  RSUExampleScenario.node[155].veinsmobility  posx  ETV
vector 1090  RSUExampleScenario.node[155].veinsmobility  posy  ETV
vector 1084  RSUExampleScenario.node[154].veinsmobility  speed  ETV
vector 1085  RSUExampleScenario.node[154].veinsmobility  acceleration  ETV
vector 1086  RSUExampleScenario.node[154].veinsmobility  co2emission  ETV
vector 1091  RSUExampleScenario.node[155].veinsmobility  speed  ETV
vector 1096  RSUExampleScenario.node[156].veinsmobility  posx  ETV
vector 1097  RSUExampleScenario.node[156].veinsmobility  posy  ETV
vector 1092  RSUExampleScenario.node[155].veinsmobility  acceleration  ETV
vector 1093  RSUExampleScenario.node[155].veinsmobility  co2emission  ETV
vector 1103  RSUExampleScenario.node[157].veinsmobility  posx  ETV
vector 1104  RSUExampleScenario.node[157].veinsmobility  posy  ETV
vector 1098  RSUExampleScenario.node[156].veinsmobility  speed  ETV
vector 1110  RSUExampleScenario.node[158].veinsmobility  posx  ETV
vector 1111  RSUExampleScenario.node[158].veinsmobility  posy  ETV
vector 1099  RSUExampleScenario.node[156].veinsmobility  acceleration  ETV
vector 1100  RSUExampleScenario.node[156].veinsmobility  co2emission  ETV
vector 1105  RSUExampleScenario.node[157].veinsmobility  speed  ETV
vector 1106  RSUExampleScenario.node[157].veinsmobility  acceleration  ETV
vector 1107  RSUExampleScenario.node[157].veinsmobility  co2emission  ETV
vector 1112  RSUExampleScenario.node[158].veinsmobility  speed  ETV
vector 1117  RSUExampleScenario.node[159].veinsmobility  posx  ETV
vector 1118  RSUExampleScenario.node[159].veinsmobility  posy  ETV
vector 1113  RSUExampleScenario.node[158].veinsmobility  acceleration  ETV
vector 1114  RSUExampleScenario.node[158].veinsmobility  co2emission  ETV
vector 1124  RSUExampleScenario.node[160].veinsmobility  posx  ETV
vector 1125  RSUExampleScenario.node[160].veinsmobility  posy  ETV
vector 1119  RSUExampleScenario.node[159].veinsmobility  speed  ETV
vector 1120  RSUExampleScenario.node[159].veinsmobility  acceleration  ETV
vector 1121  RSUExampleScenario.node[159].veinsmobility  co2emission  ETV
vector 1126  RSUExampleScenario.node[160].veinsmobility  speed  ETV
vector 1131  RSUExampleScenario.node[161].veinsmobility  posx  ETV
vector 1132  RSUExampleScenario.node[161].veinsmobility  posy  ETV
vector 1127  RSUExampleScenario.node[160].veinsmobility  acceleration  ETV
vector 1128  RSUExampleScenario.node[160].veinsmobility  co2emission  ETV
vector 1138  RSUExampleScenario.node[162].veinsmobility  posx  ETV
vector 1139  RSUExampleScenario.node[162].veinsmobility  posy  ETV
vector 1133  RSUExampleScenario.node[161].veinsmobility  speed  ETV
vector 1145  RSUExampleScenario.node[163].veinsmobility  posx  ETV
vector 1146  RSUExampleScenario.node[163].veinsmobility  posy  ETV
vector 1134  RSUExampleScenario.node[161].veinsmobility  acceleration  ETV
vector 1135  RSUExampleScenario.node[161].veinsmobility  co2emission  ETV
vector 1140  RSUExampleScenario.node[162].veinsmobility  speed  ETV
vector 1141  RSUExampleScenario.node[162].veinsmobility  acceleration  ETV
vector 1142  RSUExampleScenario.node[162].veinsmobility  co2emission  ETV
vector 1147  RSUExampleScenario.node[163].veinsmobility  speed  ETV
vector 1152  RSUExampleScenario.node[164].veinsmobility  posx  ETV
vector 1153  RSUExampleScenario.node[164].veinsmobility  posy  ETV
vector 1148  RSUExampleScenario.node[163].veinsmobility  acceleration  ETV
vector 1149  RSUExampleScenario.node[163].veinsmobility  co2emission  ETV
vector 1159  RSUExampleScenario.node[165].veinsmobility  posx  ETV
vector 1160  RSUExampleScenario.node[165].veinsmobility  posy  ETV
vector 1154  RSUExampleScenario.node[164].veinsmobility  speed  ETV
vector 1155  RSUExampleScenario.node[164].veinsmobility  acceleration  ETV
vector 1156  RSUExampleScenario.node[164].veinsmobility  co2emission  ETV
vector 1161  RSUExampleScenario.node[165].veinsmobility  speed  ETV
vector 1166  RSUExampleScenario.node[166].veinsmobility  posx  ETV
vector 1167  RSUExampleScenario.node[166].veinsmobility  posy  ETV
vector 1162  RSUExampleScenario.node[165].veinsmobility  acceleration  ETV
vector 1163  RSUExampleScenario.node[165].veinsmobility  co2emission  ETV
vector 1173  RSUExampleScenario.node[167].veinsmobility  posx  ETV
vector 1174  RSUExampleScenario.node[167].veinsmobility  posy  ETV
vector 1168  RSUExampleScenario.node[166].veinsmobility  speed  ETV
vector 1180  RSUExampleScenario.node[168].veinsmobility  posx  ETV
vector 1181  RSUExampleScenario.node[168].veinsmobility  posy  ETV
vector 1169  RSUExampleScenario.node[166].veinsmobility  acceleration  ETV
vector 1170  RSUExampleScenario.node[166].veinsmobility  co2emission  ETV
vector 1175  RSUExampleScenario.node[167].veinsmobility  speed  ETV
vector 1176  RSUExampleScenario.node[167].veinsmobility  acceleration  ETV
vector 1177  RSUExampleScenario.node[167].veinsmobility  co2emission  ETV
vector 1182  RSUExampleScenario.node[168].veinsmobility  speed  ETV
vector 1187  RSUExampleScenario.node[169].veinsmobility  posx  ETV
vector 1188  RSUExampleScenario.node[169].veinsmobility  posy  ETV
vector 1183  RSUExampleScenario.node[168].veinsmobility  acceleration  ETV
vector 1184  RSUExampleScenario.node[168].veinsmobility  co2emission  ETV
vector 1194  RSUExampleScenario.node[170].veinsmobility  posx  ETV
vector 1195  RSUExampleScenario.node[170].veinsmobility  posy  ETV
vector 1189  RSUExampleScenario.node[169].veinsmobility  speed  ETV
vector 1190  RSUExampleScenario.node[169].veinsmobility  acceleration  ETV
vector 1191  RSUExampleScenario.node[169].veinsmobility  co2emission  ETV
vector 1196  RSUExampleScenario.node[170].veinsmobility  speed  ETV
vector 1201  RSUExampleScenario.node[171].veinsmobility  posx  ETV
vector 1202  RSUExampleScenario.node[171].veinsmobility  posy  ETV
vector 1197  RSUExampleScenario.node[170].veinsmobility  acceleration  ETV
vector 1198  RSUExampleScenario.node[170].veinsmobility  co2emission  ETV
vector 1208  RSUExampleScenario.node[172].veinsmobility  posx  ETV
vector 1209  RSUExampleScenario.node[172].veinsmobility  posy  ETV
vector 1203  RSUExampleScenario.node[171].veinsmobility  speed  ETV
vector 1204  RSUExampleScenario.node[171].veinsmobility  acceleration  ETV
vector 1205  RSUExampleScenario.node[171].veinsmobility  co2emission  ETV
vector 1210  RSUExampleScenario.node[172].veinsmobility  speed  ETV
vector 1215  RSUExampleScenario.node[173].veinsmobility  posx  ETV
vector 1216  RSUExampleScenario.node[173].veinsmobility  posy  ETV
vector 1211  RSUExampleScenario.node[172].veinsmobility  acceleration  ETV
vector 1212  RSUExampleScenario.node[172].veinsmobility  co2emission  ETV
vector 1222  RSUExampleScenario.node[174].veinsmobility  posx  ETV
vector 1223  RSUExampleScenario.node[174].veinsmobility  posy  ETV
vector 1217  RSUExampleScenario.node[173].veinsmobility  speed  ETV
85	515443 10836 23 39650 22 515 494 0.973 30.175226491725 1158.7411291692 9470.9605277363
84	526279 11444 23 39650 22 515 494 -4.5 5.0330712063611 5.9556165284255 955.94013325325
83	537723 11076 22 39650 21 515 495 0 27.749026262658 3403.0322237654 56472.265347728
82	548799 13934 21 39650 20 515 496 1216.547004574 2120.4007445062 774467.57920074 1250415028.0815
81	562733 13859 21 39650 20 515 496 209.5398581113 2450.384855778 666571.14843334 1161725584.8232
vector 1218  RSUExampleScenario.node[173].veinsmobility  acceleration  ETV
vector 1219  RSUExampleScenario.node[173].veinsmobility  co2emission  ETV
vector 1224  RSUExampleScenario.node[174].veinsmobility  speed  ETV
vector 1229  RSUExampleScenario.node[175].veinsmobility  posx  ETV
vector 1230  RSUExampleScenario.node[175].veinsmobility  posy  ETV
vector 1225  RSUExampleScenario.node[174].veinsmobility  acceleration  ETV
vector 1226  RSUExampleScenario.node[174].veinsmobility  co2emission  ETV
vector 1236  RSUExampleScenario.node[176].veinsmobility  posx  ETV
vector 1237  RSUExampleScenario.node[176].veinsmobility  posy  ETV
vector 1231  RSUExampleScenario.node[175].veinsmobility  speed  ETV
vector 1232  RSUExampleScenario.node[175].veinsmobility  acceleration  ETV
vector 1233  RSUExampleScenario.node[175].veinsmobility  co2emission  ETV
vector 1238  RSUExampleScenario.node[176].veinsmobility  speed  ETV
vector 1243  RSUExampleScenario.node[177].veinsmobility  posx  ETV
vector 1244  RSUExampleScenario.node[177].veinsmobility  posy  ETV
vector 1239  RSUExampleScenario.node[176].veinsmobility  acceleration  ETV
vector 1240  RSUExampleScenario.node[176].veinsmobility  co2emission  ETV
vector 1245  RSUExampleScenario.node[177].veinsmobility  speed  ETV
vector 1250  RSUExampleScenario.node[178].veinsmobility  posx  ETV
vector 1251  RSUExampleScenario.node[178].veinsmobility  posy  ETV
vector 1246  RSUExampleScenario.node[177].veinsmobility  acceleration  ETV
vector 1247  RSUExampleScenario.node[177].veinsmobility  co2emission  ETV
vector 1257  RSUExampleScenario.node[179].veinsmobility  posx  ETV
vector 1258  RSUExampleScenario.node[179].veinsmobility  posy  ETV
vector 1252  RSUExampleScenario.node[178].veinsmobility  speed  ETV
vector 1253  RSUExampleScenario.node[178].veinsmobility  acceleration  ETV
vector 1254  RSUExampleScenario.node[178].veinsmobility  co2emission  ETV
vector 1259  RSUExampleScenario.node[179].veinsmobility  speed  ETV
vector 1264  RSUExampleScenario.node[180].veinsmobility  posx  ETV
vector 1265  RSUExampleScenario.node[180].veinsmobility  posy  ETV
vector 1260  RSUExampleScenario.node[179].veinsmobility  acceleration  ETV
vector 1261  RSUExampleScenario.node[179].veinsmobility  co2emission  ETV
vector 1266  RSUExampleScenario.node[180].veinsmobility  speed  ETV
vector 1271  RSUExampleScenario.node[181].veinsmobility  posx  ETV
vector 1272  RSUExampleScenario.node[181].veinsmobility  posy  ETV
vector 1267  RSUExampleScenario.node[180].veinsmobility  acceleration  ETV
vector 1268  RSUExampleScenario.node[180].veinsmobility  co2emission  ETV
vector 1273  RSUExampleScenario.node[181].veinsmobility  speed  ETV
vector 1278  RSUExampleScenario.node[182].veinsmobility  posx  ETV
vector 1279  RSUExampleScenario.node[182].veinsmobility  posy  ETV
vector 1274  RSUExampleScenario.node[181].veinsmobility  acceleration  ETV
vector 1275  RSUExampleScenario.node[181].veinsmobility  co2emission  ETV
vector 1285  RSUExampleScenario.node[183].veinsmobility  posx  ETV
vector 1286  RSUExampleScenario.node[183].veinsmobility  posy  ETV
vector 1280  RSUExampleScenario.node[182].veinsmobility  speed  ETV
vector 1281  RSUExampleScenario.node[182].veinsmobility  acceleration  ETV
vector 1282  RSUExampleScenario.node[182].veinsmobility  co2emission  ETV
vector 1287  RSUExampleScenario.node[183].veinsmobility  speed  ETV
vector 1292  RSUExampleScenario.node[184].veinsmobility  posx  ETV
vector 1293  RSUExampleScenario.node[184].veinsmobility  posy  ETV
vector 1288  RSUExampleScenario.node[183].veinsmobility  acceleration  ETV
vector 1289  RSUExampleScenario.node[183].veinsmobility  co2emission  ETV
vector 1294  RSUExampleScenario.node[184].veinsmobility  speed  ETV
vector 1299  RSUExampleScenario.node[185].veinsmobility  posx  ETV
vector 1300  RSUExampleScenario.node[185].veinsmobility  posy  ETV
vector 1295  RSUExampleScenario.node[184].veinsmobility  acceleration  ETV
vector 1296  RSUExampleScenario.node[184].veinsmobility  co2emission  ETV
vector 1301  RSUExampleScenario.node[185].veinsmobility  speed  ETV
vector 1306  RSUExampleScenario.node[186].veinsmobility  posx  ETV
vector 1307  RSUExampleScenario.node[186].veinsmobility  posy  ETV
vector 1302  RSUExampleScenario.node[185].veinsmobility  acceleration  ETV
vector 1303  RSUExampleScenario.node[185].veinsmobility  co2emission  ETV
vector 1308  RSUExampleScenario.node[186].veinsmobility  speed  ETV
vector 1313  RSUExampleScenario.node[187].veinsmobility  posx  ETV
vector 1314  RSUExampleScenario.node[187].veinsmobility  posy  ETV
vector 1309  RSUExampleScenario.node[186].veinsmobility  acceleration  ETV
vector 1310  RSUExampleScenario.node[186].veinsmobility  co2emission  ETV
vector 1315  RSUExampleScenario.node[187].veinsmobility  speed  ETV
vector 1320  RSUExampleScenario.node[188].veinsmobility  posx  ETV
vector 1321  RSUExampleScenario.node[188].veinsmobility  posy  ETV
vector 1316  RSUExampleScenario.node[187].veinsmobility  acceleration  ETV
vector 1317  RSUExampleScenario.node[187].veinsmobility  co2emission  ETV
vector 1322  RSUExampleScenario.node[188].veinsmobility  speed  ETV
vector 1327  RSUExampleScenario.node[189].veinsmobility  posx  ETV
vector 1328  RSUExampleScenario.node[189].veinsmobility  posy  ETV
vector 1323  RSUExampleScenario.node[188].veinsmobility  acceleration  ETV
vector 1324  RSUExampleScenario.node[188].veinsmobility  co2emission  ETV
vector 1334  RSUExampleScenario.node[190].veinsmobility  posx  ETV
vector 1335  RSUExampleScenario.node[190].veinsmobility  posy  ETV
vector 1329  RSUExampleScenario.node[189].veinsmobility  speed  ETV
vector 1330  RSUExampleScenario.node[189].veinsmobility  acceleration  ETV
vector 1331  RSUExampleScenario.node[189].veinsmobility  co2emission  ETV
vector 1336  RSUExampleScenario.node[190].veinsmobility  speed  ETV
vector 1341  RSUExampleScenario.node[191].veinsmobility  posx  ETV
vector 1342  RSUExampleScenario.node[191].veinsmobility  posy  ETV
vector 1337  RSUExampleScenario.node[190].veinsmobility  acceleration  ETV
vector 1338  RSUExampleScenario.node[190].veinsmobility  co2emission  ETV
vector 1343  RSUExampleScenario.node[191].veinsmobility  speed  ETV
vector 1348  RSUExampleScenario.node[192].veinsmobility  posx  ETV
vector 1349  RSUExampleScenario.node[192].veinsmobility  posy  ETV
vector 1344  RSUExampleScenario.node[191].veinsmobility  acceleration  ETV
vector 1345  RSUExampleScenario.node[191].veinsmobility  co2emission  ETV
vector 1350  RSUExampleScenario.node[192].veinsmobility  speed  ETV
vector 1355  RSUExampleScenario.node[193].veinsmobility  posx  ETV
vector 1356  RSUExampleScenario.node[193].veinsmobility  posy  ETV
vector 1351  RSUExampleScenario.node[192].veinsmobility  acceleration  ETV
vector 1352  RSUExampleScenario.node[192].veinsmobility  co2emission  ETV
vector 1357  RSUExampleScenario.node[193].veinsmobility  speed  ETV
vector 1362  RSUExampleScenario.node[194].veinsmobility  posx  ETV
vector 1363  RSUExampleScenario.node[194].veinsmobility  posy  ETV
vector 1358  RSUExampleScenario.node[193].veinsmobility  acceleration  ETV
vector 1359  RSUExampleScenario.node[193].veinsmobility  co2emission  ETV
vector 1364  RSUExampleScenario.node[194].veinsmobility  speed  ETV
vector 1369  RSUExampleScenario.node[195].veinsmobility  posx  ETV
vector 1370  RSUExampleScenario.node[195].veinsmobility  posy  ETV
vector 1365  RSUExampleScenario.node[194].veinsmobility  acceleration  ETV
vector 1366  RSUExampleScenario.node[194].veinsmobility  co2emission  ETV
vector 1371  RSUExampleScenario.node[195].veinsmobility  speed  ETV
vector 1376  RSUExampleScenario.node[196].veinsmobility  posx  ETV
vector 1377  RSUExampleScenario.node[196].veinsmobility  posy  ETV
vector 1372  RSUExampleScenario.node[195].veinsmobility  acceleration  ETV
vector 1373  RSUExampleScenario.node[195].veinsmobility  co2emission  ETV
vector 1378  RSUExampleScenario.node[196].veinsmobility  speed  ETV
120	584531 12237 33 50759 32 556 525 0.973 29.314558412395 1155.9721265597 8258.6340038997
119	596768 13026 33 50759 32 556 525 -3.7580573127114 5.2215797918104 6.803718953662 792.5554961468
118	609794 12515 32 50759 31 556 526 0 27.750498325201 3398.8211218171 55322.161841057
117	622309 15391 31 50759 30 556 527 1216.5374772754 2120.9527955605 825267.35286547 1335305630.5623
116	637700 15353 31 50759 30 556 527 207.38118284778 2450.4987197731 690188.80453393 1208046221.9893
vector 1383  RSUExampleScenario.node[197].veinsmobility  posx  ETV
vector 1384  RSUExampleScenario.node[197].veinsmobility  posy  ETV
vector 1379  RSUExampleScenario.node[196].veinsmobility  acceleration  ETV
vector 1380  RSUExampleScenario.node[196].veinsmobility  co2emission  ETV
vector 1385  RSUExampleScenario.node[197].veinsmobility  speed  ETV
vector 1390  RSUExampleScenario.node[198].veinsmobility  posx  ETV
vector 1391  RSUExampleScenario.node[198].veinsmobility  posy  ETV
vector 1386  RSUExampleScenario.node[197].veinsmobility  acceleration  ETV
vector 1387  RSUExampleScenario.node[197].veinsmobility  co2emission  ETV
vector 1392  RSUExampleScenario.node[198].veinsmobility  speed  ETV
vector 1397  RSUExampleScenario.node[199].veinsmobility  posx  ETV
vector 1398  RSUExampleScenario.node[199].veinsmobility  posy  ETV
vector 1393  RSUExampleScenario.node[198].veinsmobility  acceleration  ETV
vector 1394  RSUExampleScenario.node[198].veinsmobility  co2emission  ETV
vector 1399  RSUExampleScenario.node[199].veinsmobility  speed  ETV
vector 1404  RSUExampleScenario.node[200].veinsmobility  posx  ETV
vector 1405  RSUExampleScenario.node[200].veinsmobility  posy  ETV
vector 1400  RSUExampleScenario.node[199].veinsmobility  acceleration  ETV
vector 1401  RSUExampleScenario.node[199].veinsmobility  co2emission  ETV
vector 1406  RSUExampleScenario.node[200].veinsmobility  speed  ETV
vector 1411  RSUExampleScenario.node[201].veinsmobility  posx  ETV
vector 1412  RSUExampleScenario.node[201].veinsmobility  posy  ETV
vector 1407  RSUExampleScenario.node[200].veinsmobility  acceleration  ETV
vector 1408  RSUExampleScenario.node[200].veinsmobility  co2emission  ETV
vector 1413  RSUExampleScenario.node[201].veinsmobility  speed  ETV
50	654808 12124 15 50805 14 566 553 0.91768696535901 13.87747216524 1078.9693606434 4401.2953364576
49	666932 13311 15 50805 14 566 553 -1.5 1.9689831678834 4.4882193152985 386.93256396109
48	680243 13124 14 50805 13 566 554 0 27.779343798762 3398.8412852288 51600.489074288
47	693367 15515 13 50805 12 566 555 1217.2856477229 2120.9336745767 854217.25829293 1357010237.551
46	708882 15493 13 50805 12 566 555 203.91784332821 2450.4068745655 708604.91052079 1188925889.2147
vector 1418  RSUExampleScenario.node[202].veinsmobility  posx  ETV
vector 1419  RSUExampleScenario.node[202].veinsmobility  posy  ETV
vector 1414  RSUExampleScenario.node[201].veinsmobility  acceleration  ETV
vector 1415  RSUExampleScenario.node[201].veinsmobility  co2emission  ETV
vector 1420  RSUExampleScenario.node[202].veinsmobility  speed  ETV
vector 1425  RSUExampleScenario.node[203].veinsmobility  posx  ETV
vector 1426  RSUExampleScenario.node[203].veinsmobility  posy  ETV
vector 1421  RSUExampleScenario.node[202].veinsmobility  acceleration  ETV
vector 1422  RSUExampleScenario.node[202].veinsmobility  co2emission  ETV
vector 1427  RSUExampleScenario.node[203].veinsmobility  speed  ETV
vector 1432  RSUExampleScenario.node[204].veinsmobility  posx  ETV
vector 1433  RSUExampleScenario.node[204].veinsmobility  posy  ETV
vector 1428  RSUExampleScenario.node[203].veinsmobility  acceleration  ETV
vector 1429  RSUExampleScenario.node[203].veinsmobility  co2emission  ETV
281	725360 11912 75 50818 74 571 498 0.973 31.842636738731 1210.8899436739 10506.229442362
280	737272 12277 75 50818 74 571 498 -4.5 4.9360353145622 7.7429877549871 1016.8891484497
279	749549 11873 74 50818 73 571 499 0 27.733655169588 3400.2238429506 56110.276332465
278	761422 14687 73 50818 72 571 500 1218.7847142406 2120.4592756275 785110.66495749 1269884712.9645
277	776109 14759 73 50818 72 571 500 209.49168519536 2450.2202315917 682644.21547618 1225866505.7573
vector 1434  RSUExampleScenario.node[204].veinsmobility  speed  ETV
vector 1439  RSUExampleScenario.node[205].veinsmobility  posx  ETV
vector 1440  RSUExampleScenario.node[205].veinsmobility  posy  ETV
vector 1435  RSUExampleScenario.node[204].veinsmobility  acceleration  ETV
vector 1436  RSUExampleScenario.node[204].veinsmobility  co2emission  ETV
99	791219 12226 28 50826 27 573 547 0.77427503412539 17.181714223196 1135.4430185227 5891.2352327506
[...]
2451	33762819 16449 140562 153354 1609 2204 596 0.973 16.636893623028 1147.4398721563 5260.5862492128
2450	33779268 17416 140562 153354 1609 2204 596 -4.5 5.154555893857 3.4465597563783 922.66100184144
2449	33796684 16861 140258 153354 1608 2204 597 0 16.669331343728 3664.5482900909 45565.117383892
2448	33813545 19681 137919 153354 1607 2204 598 1141.5845242077 1906.630129504 825910.21078677 1160839068.2375
2447	33833226 19692 137919 153354 1607 2204 598 209.83658229804 2415.8170706383 954614.89883726 1692766627.5237
2619	33852918 14997 145546 153358 1646 2208 563 0.973 21.258512156542 1135.3527533462 5747.9845444089
2618	33867915 16350 145546 153358 1646 2208 563 -2.5 2.7638180283464 5.0192400318537 510.42440568205
2617	33884265 15901 145544 153358 1645 2208 564 0 27.774180858609 3402.6470329146 53930.055851509
2616	33900166 18617 145542 153358 1644 2208 565 1216.8465023078 2120.5525155766 953233.27024278 1654289620.2286
2615	33918783 18517 145542 153358 1644 2208 565 205.98767317936 2450.4684944311 1016355.7786156 2110382860.4723
2514	33937300 16338 140579 153361 1622 2211 590 0.973 17.461014346801 1126.4416326304 5265.172054731
2513	33953638 17148 140579 153361 1622 2211 590 -4.5 5.6 4.4123871309609 905.82110252199
2512	33970786 16752 140578 153361 1621 2211 591 0 16.631668974226 3670.2267046108 46550.433178548
2511	33987538 19491 140577 153361 1620 2211 592 1141.6420593634 1906.4598223772 861521.63752975 1290002126.3773
2510	34007029 19496 140577 153361 1620 2211 592 205.3488996845 2415.1154166567 966054.14749706 1761384675.7256
2528	34026525 16297 140582 153363 1625 2213 589 0.973 16.13773567348 1147.5512185877 5419.7038076077
2527	34042822 17209 140582 153363 1625 2213 589 -4.5 5.1810710210633 1.7892941829801 871.66878639848
2526	34060031 16601 140581 153363 1624 2213 590 0 16.661002357444 3659.4922118189 46928.538421164
2525	34076632 19417 140580 153363 1623 2213 591 1142.5859672958 1906.0914130323 862605.08495834 1297226870.2073
2524	34096049 19467 140580 153363 1623 2213 591 207.9745030459 2414.8463605768 988978.49960063 1825780847.8754
2633	34115516 15338 145553 153369 1650 2219 570 0.973 18.73712538725 1193.985467188 6251.0585894535
2632	34130854 16666 145553 153369 1650 2219 570 -2.5 2.9322111968324 4.9446196560633 604.45416238437
2631	34147520 16286 145550 153369 1649 2219 571 0 27.773179498945 3401.6371644919 54559.092185373
2630	34163806 18820 145549 153369 1648 2219 572 1216.5689293258 2120.4493558118 973875.92256267 1704959445.7623
2629	34182626 18742 145549 153369 1648 2219 572 206.89615987765 2450.2709765098 1052713.8936902 2205136362.4396
2409	34201368 17337 137910 153373 1600 2223 624 0.973 11.544653988257 1196.6014126657 4437.1888358272
2408	34218705 18474 137910 153373 1600 2223 624 -2.5 3.1 5.2239612087971 659.35331934133
2407	34237179 17903 137909 153373 1599 2223 625 0 16.595215575751 3669.8375604925 45547.301912743
2406	34255082 20613 137908 153373 1598 2223 626 1141.6805501003 1907.990612464 856331.09982273 1190734010.5596
2405	34275695 20613 137908 153373 1598 2223 626 204.28175818489 2414.8272904994 950116.11661093 1615726743.7444
2626	34296308 15616 145549 153376 1648 2226 579 0.90229945986736 18.436525362333 1188.1133185754 5952.7729926987
2625	34311924 16960 145549 153376 1648 2226 579 -2.5 2.732885405335 6.2920007758383 584.23899159088
2624	34328884 16653 145548 153376 1647 2226 580 0 27.768002997427 3407.7468618131 53939.233202264
2623	34345537 19088 145546 153376 1646 2226 581 1216.2475413391 2120.7865848094 977028.91764967 1690951736.6803
2622	34364625 19095 145546 153376 1646 2226 581 204.56688635203 2450.3789100373 1045876.3704663 2160229510.0822
2437	34383720 17111 137919 153378 1607 2228 622 0.973 20.18478478519 1158.0989186526 5194.3280589303
2436	34400831 18368 137919 153378 1607 2228 622 -3.0753056274197 5.2813280564081 0.86837327511671 763.61394972874
2435	34419199 17705 137917 153378 1606 2228 623 0 16.669977947436 3661.9447754116 45389.324674304
2434	34436904 20554 137916 153378 1605 2228 624 1141.6577709988 1906.0304427594 857016.92403043 1197448356.9586
2433	34457458 20539 137916 153378 1605 2228 624 207.84904425009 2413.7056417117 960418.29376016 1653528201.5332
2535	34477997 16670 140583 153380 1626 2230 605 0.973 17.41632482556 1203.2231383406 5848.4230359319
2534	34494667 17717 140583 153380 1626 2230 605 -4.5 5.2398557049036 3.1534598533714 1000.5751846376
2533	34512384 17188 140582 153380 1625 2230 606 0 16.661398064084 3662.3307914204 45328.330591861
2532	34529572 19992 140581 153380 1624 2230 607 1141.6116199587 1905.9906769237 888273.06187493 1336916405.3937
2531	34549564 19960 140581 153380 1624 2230 607 209.81104536273 2415.7143103152 1005253.6236901 1850778979.4194
2521	34569524 16755 140580 153383 1623 2233 611 0.973 17.651792663514 1211.0314044559 6035.4955538881
2520	34586279 17647 140580 153383 1623 2233 611 -4.5 5.2333255576994 7.003416222388 1027.6034654868
2519	34603926 17107 140579 153383 1622 2233 612 0 16.62252745596 3667.0880099238 45722.764073813
2518	34621033 20192 140578 153383 1621 2233 613 1141.9824117366 1906.6497943224 888960.77859343 1327745415.573
2517	34641225 20122 140578 153383 1621 2233 613 206.84103040874 2415.8186193865 999025.86930178 1816302036.7427
2423	34661347 17411 137915 153385 1604 2235 632 0.973 19.923151423323 1192.8311251945 5454.5337551436
2422	34678758 18758 137915 153385 1604 2235 632 -4.5 5.1830109502189 3.5843685721267 825.84975705368
2421	34697516 18156 137913 153385 1603 2235 633 0 16.665591158173 3661.5208167531 45476.838242122
2420	34715672 20887 137912 153385 1602 2235 634 1142.2017010851 1906.4464791324 870999.32972855 1216521724.5526
2419	34736559 20812 137912 153385 1602 2235 634 208.62360344885 2414.5700459982 967947.369456 1654539777.8682
2360	34757371 17969 137891 153389 1585 2239 655 0.973 10.4299656788 1215.6476749298 4104.4786841484
2359	34775340 19433 137891 153389 1585 2239 655 -2.5 2.925357271604 5.8822589154875 718.83537140087
2358	34794773 18886 137890 153389 1584 2239 656 0 16.669710812674 3782.0210028938 43753.991578617
2357	34813659 21625 137889 153389 1583 2239 657 1141.6259562802 1908.3080846388 923971.63020855 1336129695.0044
2356	34835284 21549 137889 153389 1583 2239 657 205.15962856938 2415.4001355071 1069465.2884095 1944962579.7634
2549	34856833 16937 140586 153391 1629 2241 613 0.973 18.340219392985 1148.1566796686 5128.1532347575
2548	34873770 18117 140586 153391 1629 2241 613 -4.5 5.0010901644453 2.4376342594086 802.97138233322
2547	34891887 17463 140585 153391 1628 2241 614 0 16.660279513001 3661.1412063047 45720.586698219
2546	34909350 20239 140584 153391 1627 2241 615 1141.8043332417 1907.9629918216 903267.41160403 1364475663.7477
2545	34929589 20204 140584 153391 1627 2241 615 208.7964776447 2415.3714349676 1055719.0535931 2002275369.4893
2542	34949793 16966 140585 153394 1628 2244 617 0.973 17.249039055466 1200.7704744424 5927.3033065133
2541	34966759 18129 140585 153394 1628 2244 617 -4.5 5.1733542550728 2.963694674004 982.81527684519
2540	34984888 17580 140584 153394 1627 2244 618 0 16.668362224959 3666.4187747693 43387.15141725
2539	35002468 20337 140583 153394 1626 2244 619 1141.5953439008 1908.2421908239 908468.26755247 1370718934.3516
2538	35022805 20373 140583 153394 1626 2244 619 206.28534068877 2414.1218022495 1041569.8020758 1949984403.5522
2654	35043178 15822 145563 153397 1657 2247 591 0.973 17.650045178629 1150.3184083614 5566.0472549263
2653	35059000 17386 145563 153397 1657 2247 591 -2.5 2.8313710459208 3.5439781886271 502.9822653975
2652	35076386 16907 145562 153397 1656 2247 592 0 27.778286925224 3401.232618236 53412.555062678
2651	35093293 19455 145561 153397 1655 2247 593 1218.7650215803 2120.6170294397 1046351.5684717 1892508281.8592
2650	35112748 19533 145561 153397 1655 2247 593 206.37081017683 2450.274205775 1144672.4001759 2472154973.2479
2640	35132281 16089 145556 153400 1652 2250 599 0.973 18.529037789854 1179.9702387253 5911.4262836413
2639	35148370 17702 145556 153400 1652 2250 599 -2.5 2.8380530973622 4.9020126068179 534.19224684756
2638	35166072 17196 145555 153400 1651 2250 600 0 27.776944104563 3402.6535703366 53894.609625777
2637	35183268 19780 145553 153400 1650 2250 601 1218.0683825882 2120.4758421499 1019606.477523 1778101148.3661
2636	35203048 19782 145553 153400 1650 2250 601 206.79051215888 2450.1684166245 1092964.1242776 2276400476.3946
2647	35222830 16125 145561 153403 1655 2253 599 0.973 18.426403828537 1192.7058947859 5960.9530205521
2646	35238955 17707 145561 153403 1655 2253 599 -2.5 2.781216912074 2.4175923987517 616.42091293099
2645	35256662 17397 145558 153403 1654 2253 600 0 27.772246635258 3397.9183605801 53063.405331288
2644	35274059 19786 145557 153403 1653 2253 601 1216.1778254099 2120.4187301751 1049876.3720755 1882445827.132
2643	35293845 19794 145557 153403 1653 2253 601 207.1923380401 2450.3181799124 1136675.0932747 2428909078.2123
2661	35313639 16139 145565 153407 1659 2257 599 0.973 18.167838721338 1175.2523093396 5826.6660676144
2660	35329778 17711 145565 153407 1659 2257 599 -2.5 2.8540859684814 4.1029592592594 505.24654896928
2659	35347489 17252 145564 153407 1658 2257 600 0 27.723611912153 3404.4972301302 54316.482918906
2658	35364741 19803 145563 153407 1657 2257 601 1216.6691305814 2120.3930429518 1065707.5777983 1936687148.9621
2657	35384544 19738 145563 153407 1657 2257 601 204.41181094863 2450.2178416952 1166208.3551369 2530735090.8659
2668	35404282 16124 145568 153410 1661 2260 600 0.973 19.396850378976 1197.2803941777 6621.3870506876
2667	35420406 17723 145568 153410 1661 2260 600 -2.5 2.7869399760105 3.4066984067609 504.22975221643
2666	35438129 17285 145567 153410 1660 2260 601 0 27.751003138507 3405.2947722056 52880.075885061
2665	35455414 19834 145565 153410 1659 2260 602 1218.6942278696 2120.5081355711 1074615.807398 1964993983.1971
2664	35475248 19744 145565 153410 1659 2260 602 205.28248862398 2450.3884508017 1177963.3287448 2569832132.8895
2556	35494992 17667 140587 153412 1630 2262 633 0.973 17.278732839955 1187.6561004073 5453.8010662289
2555	35512659 18815 140587 153412 1630 2262 633 -4.1930802331306 5.3126144273114 3.4800180890983 828.14022440083
2554	35531474 18131 140586 153412 1629 2262 634 0 16.669579026606 3662.4450844727 46315.967124519
2553	35549605 20898 140585 153412 1628 2262 635 1142.6845777007 1907.4899386633 932034.4810759 1405885233.8349
2552	35570503 20893 140585 153412 1628 2262 635 208.99253025546 2415.8694684898 1106339.6797263 2114180732.7567
2563	35591396 17686 140589 153415 1632 2265 634 0.973 18.755520859514 1208.3345815182 5435.4136739264
2562	35609082 18782 140589 153415 1632 2265 634 -4.5 5.1257654201705 3.3088907024825 937.45924334814
2561	35627864 18220 140588 153415 1631 2265 635 0 16.668090331545 3667.2656270678 45571.995568157
2560	35646084 20949 140587 153415 1630 2265 636 1141.5879168566 1906.1357588377 940946.7044042 1428406174.2425
2559	35667033 20941 140587 153415 1630 2265 636 206.77099993569 2414.8021014397 1113330.5966287 2133704554.6956
2570	35687974 17567 140590 153417 1633 2267 635 0.973 16.4154974153 1223.5404092807 5741.4706119259
2569	35705541 18790 140590 153417 1633 2267 635 -4.5 5.1209528690856 3.352070883225 992.40127027797
2568	35724331 18203 140589 153417 1632 2267 636 0 16.666500967536 3661.5514555707 44713.401627559
2567	35742534 20970 140588 153417 1631 2267 637 1142.0367456041 1906.5656855758 945834.22437005 1439263712.9011
2566	35763504 20979 140588 153417 1631 2267 637 209.28039800352 2415.7165484127 1117193.7773276 2142400427.3804
2577	35784483 17492 140593 153420 1635 2270 636 0.973 19.480412750809 1193.9310032106 5383.1485477004
2576	35801975 18770 140593 153420 1635 2270 636 -4.0051849122861 5.6 5.297323687388 839.45855114679
2575	35820745 18138 140591 153420 1634 2270 637 0 16.654483694825 3669.1879569917 44435.283455304
2574	35838883 21014 140590 153420 1633 2270 638 1141.6305666305 1907.9226955399 952361.77240431 1454961538.6804
2573	35859897 20956 140590 153420 1633 2270 638 206.31607997604 2414.4898468308 1132139.8387603 2197731341.955
2675	35880853 16844 145571 153432 1663 2282 620 0.973 18.899355804989 1247.6484049661 6784.1892764242
2674	35897697 18522 145571 153432 1663 2282 620 -2.5 2.818111727747 3.8947679571128 565.44827740767
2673	35916219 18004 145570 153432 1662 2282 621 0 27.679503624061 3402.6196157941 52825.807330631
2672	35934223 20488 145568 153432 1661 2282 622 1216.0852268711 2120.7601579372 1110039.621437 2029836782.0133
2671	35954711 20485 145568 153432 1661 2282 622 205.91984541342 2450.5211229688 1235134.0905968 2690656355.255
2682	35975196 16877 145574 153436 1665 2286 622 0.973 21.074716963777 1242.0089241116 6872.3802045953
2681	35992073 18632 145574 153436 1665 2286 622 -2.5 2.893541997076 3.9133405097648 542.24508372774
2680	36010705 18151 145573 153436 1664 2286 623 0 27.59850781973 3402.1110741093 52612.668262918
2679	36028856 20552 145571 153436 1663 2286 624 1217.1588189332 2120.8733253647 1116445.8570815 2046758200.6366
2678	36049408 20553 145571 153436 1663 2286 624 206.41440047196 2450.6194375448 1243107.2610124 2716730576.5797
2689	36069961 16997 145578 153442 1667 2292 626 0.973 18.315677350354 1205.1932152045 6043.8612704953
2688	36086958 18718 145578 153442 1667 2292 626 -2.5 2.7104738769458 3.9594234381721 476.89318387184
2687	36105676 18180 145577 153442 1666 2292 627 0 27.774485818433 3402.7527962007 53054.416593664
2686	36123856 20672 145574 153442 1665 2292 628 1217.1120739933 2120.708442417 1132412.4622059 2090550661.6674
2685	36144528 20644 145574 153442 1665 2292 628 205.95408522431 2450.6075436656 1262415.0990787 2773562304.7239
2696	36165172 17117 145581 153447 1669 2297 629 0.28426486027533 19.436123835113 1220.2017948891 6176.7711785276
2695	36182289 18850 145581 153447 1669 2297 629 -2.5 2.8119088576173 4.6582396860219 536.82230395699
2694	36201139 18358 145580 153447 1668 2297 630 0 27.663788098677 3403.9797004236 51295.470892274
2693	36219497 20777 145578 153447 1667 2297 631 1216.3505356051 2120.6246807249 1125644.6033838 2057089317.5293
2692	36240274 20780 145578 153447 1667 2297 631 204.91160958237 2450.4221253291 1258833.6521157 2753760125.8435
2717	36261054 16961 145590 153450 1675 2300 626 -0.37845531491896 21.00547362063 1174.8572922753 5723.9201955179
2716	36278015 18710 145590 153450 1675 2300 626 -2.5 2.8001479212071 4.840604945675 436.08165100087
2715	36296725 18187 145588 153450 1674 2300 627 0 27.775302739937 3405.3929002276 55341.551209936
2714	36314912 20631 145587 153450 1673 2300 628 1218.7565714186 2120.6099152546 1134071.4529176 2100590700.4063
2713	36335543 20676 145587 153450 1673 2300 628 205.48515118752 2450.1538077636 1274972.2343329 2837519215.8863
2703	36356219 17147 145584 153453 1671 2303 633 0.973 17.995295493107 1199.6481746436 5781.2960597798
2702	36373366 18974 145584 153453 1671 2303 633 -2.5 2.7856476934219 3.859549710069 485.07065412783
2701	36392340 18482 145583 153453 1670 2303 634 0 25.454600559874 3402.3026989336 50320.603967131
2700	36410822 20920 145581 153453 1669 2303 635 1216.3791405056 2120.8975426788 1130771.5703054 2063095045.6807
2699	36431742 20923 145581 153453 1669 2303 635 206.03152549674 2450.5455181535 1262852.1225093 2765668861.3107
2584	36452665 18732 140594 153456 1636 2306 671 0.973 10.146297876275 1195.6452538572 3853.2870801169
2583	36471397 20170 140594 153456 1636 2306 671 -2.5 2.9740120120556 4.3507883046096 598.85568877961
2582	36491567 19516 140593 153456 1635 2306 672 0 16.668919401675 3665.8406661713 44383.452760982
2581	36511083 22175 140591 153456 1634 2306 673 1142.1208724212 1908.2047784831 1008566.5447041 1544219775.0338
2580	36533258 22164 140591 153456 1634 2306 673 206.85036660638 2415.3171800073 1205593.9889444 2352407816.8194
2710	36555422 17276 145587 153459 1673 2309 637 0.973 19.115649793193 1233.4257432527 6289.1639083967
2709	36572698 19123 145587 153459 1673 2309 637 -2.5 2.7646878681018 3.3150653208971 530.31376755856
2708	36591821 18554 145585 153459 1672 2309 638 0 26.111132538537 3400.480776624 51334.738811479
2707	36610375 20948 145584 153459 1671 2309 639 1216.8384599043 2120.9127760641 1137935.122782 2075478787.6029
2706	36631323 21007 145584 153459 1671 2309 639 207.25717927027 2450.2033535414 1276146.8110363 2799296593.2973
2591	36652330 18736 145535 153463 1638 2313 676 0.973 11.604178880143 1204.479232081 3871.6637889179
2590	36671066 20280 145535 153463 1638 2313 676 -2.5 2.9230525409023 6.5063675427011 610.26738315203
2589	36691346 19673 144955 153463 1637 2313 677 0 16.669031701745 3671.7330725975 43970.528927422
2588	36711019 22287 140594 153463 1636 2313 678 1142.1815075185 1908.2840572502 1020364.3662237 1567255524.7142
2587	36733306 22328 140594 153463 1636 2313 678 204.25935196411 2415.3713733152 1218577.8858158 2379757952.9355
2367	36755634 20196 137893 153466 1587 2316 730 0.973 10.032408096893 1325.8238727831 4558.6024668946
2366	36775830 22164 137893 153466 1587 2316 730 -2.5 2.857990191065 6.6717597102747 728.48630632172
2365	36797994 21500 137892 153466 1586 2316 731 0 16.66515011632 3784.2861968272 45516.133904829
2364	36819494 24095 137891 153466 1585 2316 732 1141.5984600661 1907.6879391801 1123828.1459953 1759995777.739
2363	36843589 24092 137891 153466 1585 2316 732 204.49321674206 2415.4001355071 1351959.5263788 2706676263.461
2374	36867681 20206 137896 153469 1590 2319 730 0.973 10.907780012567 1354.221790697 4828.4925848974
2373	36887887 22144 137896 153469 1590 2319 730 -2.5 2.8335878432461 4.1810716684235 798.07858748111
2372	36910031 21610 137895 153469 1589 2319 731 0 16.669437900797 3780.7994857508 44247.708665174
2371	36931641 24104 137894 153469 1588 2319 732 1142.1169054173 1907.9326435495 1133009.1507718 1790238150.7973
2370	36955745 24050 137894 153469 1588 2319 732 204.76211925456 2414.2416358273 1350885.7366645 2701110764.6373
2724	36979795 17686 151968 153472 1677 2322 646 0.973 19.808915096183 1145.7184384113 4520.1281187064
2723	36997481 19470 151968 153472 1677 2322 646 -2.5 2.7760923596289 4.5721376837405 398.59802510989
2722	37016951 18894 151119 153472 1676 2322 647 0 27.778890547457 3405.9278945401 56183.362186319
2721	37035845 21339 145590 153472 1675 2322 648 1216.0998407695 2120.8587058755 1174220.0084478 2182166531.4399
2720	37057184 21295 145590 153472 1675 2322 648 205.09190972545 2450.1528079084 1317010.5746698 2933227639.3855
2731	37078479 17628 151971 153475 1679 2325 647 0.22896052827842 19.992663712316 1144.2155892688 4704.9558634328
2730	37096107 19458 151971 153475 1679 2325 647 -2.5 2.9313159079221 4.7785772899348 373.99301270173
2729	37115565 18826 151969 153475 1678 2325 648 0 27.77054826856 3402.2466002791 56594.302646812
2728	37134391 21359 151968 153475 1677 2325 649 1218.7959145 2120.6941962894 1173353.4179417 2175487552.9232
2727	37155750 21366 151968 153475 1677 2325 649 205.98809077928 2450.4133825799 1320883.7396978 2947239084.6049
2381	37177116 20321 137900 153478 1592 2328 737 0.973 11.657383400484 1334.2324083507 4666.4135309032
2380	37197437 22392 137900 153478 1592 2328 737 -2.5 2.8073389287118 2.731813897563 691.00008121127
2379	37219829 21662 137898 153478 1591 2328 738 0 16.668204028463 3773.5317907337 43984.038865993
2378	37241491 24303 137896 153478 1590 2328 739 1141.7230646666 1907.6080113407 1148705.033526 1822509469.1687
2377	37265794 24343 137896 153478 1590 2328 739 206.78722895845 2414.4287721299 1359042.2516808 2716854216.0044
2388	37290137 20307 137903 153481 1594 2331 738 0.973 10.01912925025 1321.8197026688 4550.549990472
2387	37310444 22411 137903 153481 1594 2331 738 -2.5 2.9389789028256 2.6284588421969 685.10879013509
2386	37332855 21724 137902 153481 1593 2331 739 0 16.668630117686 3773.1969271539 43983.287054796
2385	37354579 24369 137900 153481 1592 2331 740 1141.6003894527 1907.9328244198 1149521.7762171 1822055702.4414
2384	37378948 24356 137900 153481 1592 2331 740 207.5252273347 2414.623739365 1362538.4686148 2729950575.0369
