version 2
run debug-0-20170102-13:11:47-3059
attr configname debug
attr datetime 20170102-13:11:47
attr experiment debug
attr inifile omnetpp.ini
attr iterationvars ""
attr iterationvars2 $repetition=0
attr measurement ""
attr network RSUExampleScenario
attr processid 3059
attr repetition 0
attr replication #0
attr resultdir results
attr runnumber 0
attr seedset 0
param **.coreDebug false
param **.debug false
param *.**.nic.mac1609_4.bitrate 18Mbps
param *.**.nic.mac1609_4.txPower 20mW
param *.**.nic.mac1609_4.useServiceChannel false
param *.**.nic.phy80211p.analogueModels "xmldoc(\"config.xml\")"
param *.**.nic.phy80211p.decider "xmldoc(\"config.xml\")"
param *.**.nic.phy80211p.sensitivity -89dBm
param *.**.nic.phy80211p.thermalNoise -110dBm
param *.**.nic.phy80211p.usePropagationDelay true
param *.**.nic.phy80211p.useThermalNoise true
param *.annotations.draw false
param *.connectionManager.alpha 2.0
param *.connectionManager.carrierFrequency "5.890e9 Hz"
param *.connectionManager.pMax 12mW
param *.connectionManager.sat -89dBm
param *.connectionManager.sendDirect true
param *.manager.autoShutdown true
param *.manager.host "\"localhost\""
param *.manager.launchConfig "xmldoc(\"erlangen.launchd.xml\")"
param *.manager.margin 25
param *.manager.moduleDisplayString "\"\""
param *.manager.moduleName "\"node\""
param *.manager.moduleType "\"org.car2x.veins.nodes.Car\""
param *.manager.port 9999
param *.manager.updateInterval 1s
param *.node[*].appl.beaconInterval 1s
param *.node[*].appl.beaconPriority 3
param *.node[*].appl.dataOnSch false
param *.node[*].appl.dataPriority 2
param *.node[*].appl.debug false
param *.node[*].appl.headerLength "256 bit"
param *.node[*].appl.maxOffset 0.005s
param *.node[*].appl.sendBeacons false
param *.node[*].appl.sendData true
param *.node[*].applType "\"TraCIDemo11p\""
param *.node[*].mobilityType "\"TraCIMobility\""
param *.node[*].mobilityType.debug true
param *.node[*].veinsmobility.accidentCount 5
param *.node[*].veinsmobility.accidentDuration 43s
param *.node[*].veinsmobility.accidentStart 85s
param *.node[*].veinsmobility.x 0
param *.node[*].veinsmobility.y 0
param *.node[*].veinsmobility.z 1.895
param *.node[*].veinsmobilityType "\"org.car2x.veins.modules.mobility.traci.TraCIMobility\""
param *.node[*].veinsmobilityType.debug true
param *.obstacles.debug false
param *.obstacles.obstacles "xmldoc(\"config.xml\", \"//AnalogueModel[@type='SimpleObstacleShadowing']/obstacles\")"
param *.playgroundSizeX 2500m
param *.playgroundSizeY 2500m
param *.playgroundSizeZ 50m
param *.rsu[*].appl.beaconInterval 1s
param *.rsu[*].appl.beaconPriority 3
param *.rsu[*].appl.dataOnSch false
param *.rsu[*].appl.dataPriority 2
param *.rsu[*].appl.debug false
param *.rsu[*].appl.headerLength "256 bit"
param *.rsu[*].appl.maxOffset 0.005s
param *.rsu[*].appl.sendBeacons false
param *.rsu[*].appl.sendData true
param *.rsu[*].applType "\"TraCIDemoRSU11p\""
param *.rsu[0].mobility.x 2000
param *.rsu[0].mobility.y 2000
param *.rsu[0].mobility.z 3
param *.world.use2D false
param *.world.useTorus false

scalar RSUExampleScenario.node[0].nic.phy80211p 	busyTime 	0
scalar RSUExampleScenario.node[0].nic.mac1609_4 	ReceivedUnicastPackets 	0
scalar RSUExampleScenario.node[0].nic.mac1609_4 	ReceivedBroadcasts 	0
scalar RSUExampleScenario.node[0].nic.mac1609_4 	SentPackets 	1
scalar RSUExampleScenario.node[0].nic.mac1609_4 	SNIRLostPackets 	0
scalar RSUExampleScenario.node[0].nic.mac1609_4 	RXTXLostPackets 	0
scalar RSUExampleScenario.node[0].nic.mac1609_4 	TotalLostPackets 	0
scalar RSUExampleScenario.node[0].nic.mac1609_4 	DroppedPacketsInMac 	0
scalar RSUExampleScenario.node[0].nic.mac1609_4 	TooLittleTime 	0
scalar RSUExampleScenario.node[0].nic.mac1609_4 	TimesIntoBackoff 	1
scalar RSUExampleScenario.node[0].nic.mac1609_4 	SlotsBackoff 	2
scalar RSUExampleScenario.node[0].nic.mac1609_4 	NumInternalContention 	0
scalar RSUExampleScenario.node[0].nic.mac1609_4 	totalBusyTime 	0.000121
scalar RSUExampleScenario.node[0].veinsmobility 	startTime 	1
scalar RSUExampleScenario.node[0].veinsmobility 	totalTime 	328
scalar RSUExampleScenario.node[0].veinsmobility 	stopTime 	330
scalar RSUExampleScenario.node[0].veinsmobility 	minSpeed 	0
scalar RSUExampleScenario.node[0].veinsmobility 	maxSpeed 	27.768710480146
scalar RSUExampleScenario.node[0].veinsmobility 	totalDistance 	3393.9421777312
scalar RSUExampleScenario.node[0].veinsmobility 	totalCO2Emission 	946.31605659201
scalar RSUExampleScenario.node[1].nic.phy80211p 	busyTime 	5.6983240223464e-06
scalar RSUExampleScenario.node[1].nic.mac1609_4 	ReceivedUnicastPackets 	0
scalar RSUExampleScenario.node[1].nic.mac1609_4 	ReceivedBroadcasts 	15
scalar RSUExampleScenario.node[1].nic.mac1609_4 	SentPackets 	1
scalar RSUExampleScenario.node[1].nic.mac1609_4 	SNIRLostPackets 	2
scalar RSUExampleScenario.node[1].nic.mac1609_4 	RXTXLostPackets 	1
scalar RSUExampleScenario.node[1].nic.mac1609_4 	TotalLostPackets 	3
scalar RSUExampleScenario.node[1].nic.mac1609_4 	DroppedPacketsInMac 	0
scalar RSUExampleScenario.node[1].nic.mac1609_4 	TooLittleTime 	0
scalar RSUExampleScenario.node[1].nic.mac1609_4 	TimesIntoBackoff 	1
scalar RSUExampleScenario.node[1].nic.mac1609_4 	SlotsBackoff 	3
scalar RSUExampleScenario.node[1].nic.mac1609_4 	NumInternalContention 	0
scalar RSUExampleScenario.node[1].nic.mac1609_4 	totalBusyTime 	0.002041
scalar RSUExampleScenario.node[1].veinsmobility 	startTime 	3
scalar RSUExampleScenario.node[1].veinsmobility 	totalTime 	357
scalar RSUExampleScenario.node[1].veinsmobility 	stopTime 	361
scalar RSUExampleScenario.node[1].veinsmobility 	minSpeed 	0
scalar RSUExampleScenario.node[1].veinsmobility 	maxSpeed 	27.778188040318
scalar RSUExampleScenario.node[1].veinsmobility 	totalDistance 	3392.5590835576
scalar RSUExampleScenario.node[1].veinsmobility 	totalCO2Emission 	856.73560423419
scalar RSUExampleScenario.node[2].nic.phy80211p 	busyTime 	5.4e-06
scalar RSUExampleScenario.node[2].nic.mac1609_4 	ReceivedUnicastPackets 	0
scalar RSUExampleScenario.node[2].nic.mac1609_4 	ReceivedBroadcasts 	14
scalar RSUExampleScenario.node[2].nic.mac1609_4 	SentPackets 	1
scalar RSUExampleScenario.node[2].nic.mac1609_4 	SNIRLostPackets 	4
scalar RSUExampleScenario.node[2].nic.mac1609_4 	RXTXLostPackets 	0
scalar RSUExampleScenario.node[2].nic.mac1609_4 	TotalLostPackets 	4
scalar RSUExampleScenario.node[2].nic.mac1609_4 	DroppedPacketsInMac 	0
scalar RSUExampleScenario.node[2].nic.mac1609_4 	TooLittleTime 	0
scalar RSUExampleScenario.node[2].nic.mac1609_4 	TimesIntoBackoff 	1
scalar RSUExampleScenario.node[2].nic.mac1609_4 	SlotsBackoff 	4
scalar RSUExampleScenario.node[2].nic.mac1609_4 	NumInternalContention 	0
scalar RSUExampleScenario.node[2].nic.mac1609_4 	totalBusyTime 	0.002041
scalar RSUExampleScenario.node[2].veinsmobility 	startTime 	5
scalar RSUExampleScenario.node[2].veinsmobility 	totalTime 	399
scalar RSUExampleScenario.node[2].veinsmobility 	stopTime 	405
scalar RSUExampleScenario.node[2].veinsmobility 	minSpeed 	0
scalar RSUExampleScenario.node[2].veinsmobility 	maxSpeed 	27.777677725879
scalar RSUExampleScenario.node[2].veinsmobility 	totalDistance 	3397.697131857
scalar RSUExampleScenario.node[2].veinsmobility 	totalCO2Emission 	959.64072444008
scalar RSUExampleScenario.node[3].nic.phy80211p 	busyTime 	5.3865336658354e-06
scalar RSUExampleScenario.node[3].nic.mac1609_4 	ReceivedUnicastPackets 	0
scalar RSUExampleScenario.node[3].nic.mac1609_4 	ReceivedBroadcasts 	14
scalar RSUExampleScenario.node[3].nic.mac1609_4 	SentPackets 	1
scalar RSUExampleScenario.node[3].nic.mac1609_4 	SNIRLostPackets 	4
scalar RSUExampleScenario.node[3].nic.mac1609_4 	RXTXLostPackets 	0
scalar RSUExampleScenario.node[3].nic.mac1609_4 	TotalLostPackets 	4
scalar RSUExampleScenario.node[3].nic.mac1609_4 	DroppedPacketsInMac 	0
scalar RSUExampleScenario.node[3].nic.mac1609_4 	TooLittleTime 	0
scalar RSUExampleScenario.node[3].nic.mac1609_4 	TimesIntoBackoff 	1
scalar RSUExampleScenario.node[3].nic.mac1609_4 	SlotsBackoff 	1
scalar RSUExampleScenario.node[3].nic.mac1609_4 	NumInternalContention 	0
scalar RSUExampleScenario.node[3].nic.mac1609_4 	totalBusyTime 	0.002041
scalar RSUExampleScenario.node[3].veinsmobility 	startTime 	7
scalar RSUExampleScenario.node[3].veinsmobility 	totalTime 	400
scalar RSUExampleScenario.node[3].veinsmobility 	stopTime 	408
scalar RSUExampleScenario.node[3].veinsmobility 	minSpeed 	0
scalar RSUExampleScenario.node[3].veinsmobility 	maxSpeed 	27.750909077181
scalar RSUExampleScenario.node[3].veinsmobility 	totalDistance 	3397.0330923993
scalar RSUExampleScenario.node[3].veinsmobility 	totalCO2Emission 	1014.2299329317
scalar RSUExampleScenario.node[5].nic.phy80211p 	busyTime 	5.5339805825243e-06
scalar RSUExampleScenario.node[5].nic.mac1609_4 	ReceivedUnicastPackets 	0
scalar RSUExampleScenario.node[5].nic.mac1609_4 	ReceivedBroadcasts 	15
scalar RSUExampleScenario.node[5].nic.mac1609_4 	SentPackets 	1
scalar RSUExampleScenario.node[5].nic.mac1609_4 	SNIRLostPackets 	4
scalar RSUExampleScenario.node[5].nic.mac1609_4 	RXTXLostPackets 	0
scalar RSUExampleScenario.node[5].nic.mac1609_4 	TotalLostPackets 	4
scalar RSUExampleScenario.node[5].nic.mac1609_4 	DroppedPacketsInMac 	0
scalar RSUExampleScenario.node[5].nic.mac1609_4 	TooLittleTime 	0
scalar RSUExampleScenario.node[5].nic.mac1609_4 	TimesIntoBackoff 	2
scalar RSUExampleScenario.node[5].nic.mac1609_4 	SlotsBackoff 	8
scalar RSUExampleScenario.node[5].nic.mac1609_4 	NumInternalContention 	0
scalar RSUExampleScenario.node[5].nic.mac1609_4 	totalBusyTime 	0.002161
scalar RSUExampleScenario.node[5].veinsmobility 	startTime 	10
scalar RSUExampleScenario.node[5].veinsmobility 	totalTime 	411
scalar RSUExampleScenario.node[5].veinsmobility 	stopTime 	422
scalar RSUExampleScenario.node[5].veinsmobility 	minSpeed 	0
scalar RSUExampleScenario.node[5].veinsmobility 	maxSpeed 	27.763528873604
scalar RSUExampleScenario.node[5].veinsmobility 	totalDistance 	3395.0019865036
scalar RSUExampleScenario.node[5].veinsmobility 	totalCO2Emission 	1008.9715580083
scalar RSUExampleScenario.node[4].nic.phy80211p 	busyTime 	5.1798561151079e-06
scalar RSUExampleScenario.node[4].nic.mac1609_4 	ReceivedUnicastPackets 	0
scalar RSUExampleScenario.node[4].nic.mac1609_4 	ReceivedBroadcasts 	14
scalar RSUExampleScenario.node[4].nic.mac1609_4 	SentPackets 	1
scalar RSUExampleScenario.node[4].nic.mac1609_4 	SNIRLostPackets 	4
scalar RSUExampleScenario.node[4].nic.mac1609_4 	RXTXLostPackets 	0
scalar RSUExampleScenario.node[4].nic.mac1609_4 	TotalLostPackets 	4
scalar RSUExampleScenario.node[4].nic.mac1609_4 	DroppedPacketsInMac 	0
scalar RSUExampleScenario.node[4].nic.mac1609_4 	TooLittleTime 	0
scalar RSUExampleScenario.node[4].nic.mac1609_4 	TimesIntoBackoff 	2
scalar RSUExampleScenario.node[4].nic.mac1609_4 	SlotsBackoff 	3
scalar RSUExampleScenario.node[4].nic.mac1609_4 	NumInternalContention 	0
scalar RSUExampleScenario.node[4].nic.mac1609_4 	totalBusyTime 	0.002041
scalar RSUExampleScenario.node[4].veinsmobility 	startTime 	8
scalar RSUExampleScenario.node[4].veinsmobility 	totalTime 	416
scalar RSUExampleScenario.node[4].veinsmobility 	stopTime 	425
scalar RSUExampleScenario.node[4].veinsmobility 	minSpeed 	0
scalar RSUExampleScenario.node[4].veinsmobility 	maxSpeed 	27.75182667057
scalar RSUExampleScenario.node[4].veinsmobility 	totalDistance 	3401.7545757341
scalar RSUExampleScenario.node[4].veinsmobility 	totalCO2Emission 	1019.6558620994
scalar RSUExampleScenario.node[9].nic.phy80211p 	busyTime 	5.1818181818182e-06
scalar RSUExampleScenario.node[9].nic.mac1609_4 	ReceivedUnicastPackets 	0
scalar RSUExampleScenario.node[9].nic.mac1609_4 	ReceivedBroadcasts 	17
scalar RSUExampleScenario.node[9].nic.mac1609_4 	SentPackets 	1
scalar RSUExampleScenario.node[9].nic.mac1609_4 	SNIRLostPackets 	2
scalar RSUExampleScenario.node[9].nic.mac1609_4 	RXTXLostPackets 	1
scalar RSUExampleScenario.node[9].nic.mac1609_4 	TotalLostPackets 	3
scalar RSUExampleScenario.node[9].nic.mac1609_4 	DroppedPacketsInMac 	0
scalar RSUExampleScenario.node[9].nic.mac1609_4 	TooLittleTime 	0
scalar RSUExampleScenario.node[9].nic.mac1609_4 	TimesIntoBackoff 	2
scalar RSUExampleScenario.node[9].nic.mac1609_4 	SlotsBackoff 	8
scalar RSUExampleScenario.node[9].nic.mac1609_4 	NumInternalContention 	0
scalar RSUExampleScenario.node[9].nic.mac1609_4 	totalBusyTime 	0.002281
scalar RSUExampleScenario.node[9].veinsmobility 	startTime 	17
scalar RSUExampleScenario.node[9].veinsmobility 	totalTime 	439
scalar RSUExampleScenario.node[9].veinsmobility 	stopTime 	457
scalar RSUExampleScenario.node[9].veinsmobility 	minSpeed 	0
scalar RSUExampleScenario.node[9].veinsmobility 	maxSpeed 	27.76204985423
scalar RSUExampleScenario.node[9].veinsmobility 	totalDistance 	3403.453451209
scalar RSUExampleScenario.node[9].veinsmobility 	totalCO2Emission 	1071.3981561681
scalar RSUExampleScenario.node[19].nic.phy80211p 	busyTime 	7.1559633027523e-06
scalar RSUExampleScenario.node[19].nic.mac1609_4 	ReceivedUnicastPackets 	0
scalar RSUExampleScenario.node[19].nic.mac1609_4 	ReceivedBroadcasts 	16
scalar RSUExampleScenario.node[19].nic.mac1609_4 	SentPackets 	1
scalar RSUExampleScenario.node[19].nic.mac1609_4 	SNIRLostPackets 	10
scalar RSUExampleScenario.node[19].nic.mac1609_4 	RXTXLostPackets 	0
scalar RSUExampleScenario.node[19].nic.mac1609_4 	TotalLostPackets 	10
scalar RSUExampleScenario.node[19].nic.mac1609_4 	DroppedPacketsInMac 	0
scalar RSUExampleScenario.node[19].nic.mac1609_4 	TooLittleTime 	0
scalar RSUExampleScenario.node[19].nic.mac1609_4 	TimesIntoBackoff 	2
scalar RSUExampleScenario.node[19].nic.mac1609_4 	SlotsBackoff 	4
scalar RSUExampleScenario.node[19].nic.mac1609_4 	NumInternalContention 	0
scalar RSUExampleScenario.node[19].nic.mac1609_4 	totalBusyTime 	0.002641
scalar RSUExampleScenario.node[19].veinsmobility 	startTime 	34
scalar RSUExampleScenario.node[19].veinsmobility 	totalTime 	435
scalar RSUExampleScenario.node[19].veinsmobility 	stopTime 	470
scalar RSUExampleScenario.node[19].veinsmobility 	minSpeed 	0
scalar RSUExampleScenario.node[19].veinsmobility 	maxSpeed 	27.77800252744
scalar RSUExampleScenario.node[19].veinsmobility 	totalDistance 	3394.5968532755
scalar RSUExampleScenario.node[19].veinsmobility 	totalCO2Emission 	1057.3399788123
scalar RSUExampleScenario.node[14].nic.phy80211p 	busyTime 	6.9955156950673e-06
scalar RSUExampleScenario.node[14].nic.mac1609_4 	ReceivedUnicastPackets 	0
scalar RSUExampleScenario.node[14].nic.mac1609_4 	ReceivedBroadcasts 	16
scalar RSUExampleScenario.node[14].nic.mac1609_4 	SentPackets 	1
scalar RSUExampleScenario.node[14].nic.mac1609_4 	SNIRLostPackets 	10
scalar RSUExampleScenario.node[14].nic.mac1609_4 	RXTXLostPackets 	0
scalar RSUExampleScenario.node[14].nic.mac1609_4 	TotalLostPackets 	10
scalar RSUExampleScenario.node[14].nic.mac1609_4 	DroppedPacketsInMac 	0
scalar RSUExampleScenario.node[14].nic.mac1609_4 	TooLittleTime 	0
scalar RSUExampleScenario.node[14].nic.mac1609_4 	TimesIntoBackoff 	1
scalar RSUExampleScenario.node[14].nic.mac1609_4 	SlotsBackoff 	4
scalar RSUExampleScenario.node[14].nic.mac1609_4 	NumInternalContention 	0
scalar RSUExampleScenario.node[14].nic.mac1609_4 	totalBusyTime 	0.002641
scalar RSUExampleScenario.node[14].veinsmobility 	startTime 	27
scalar RSUExampleScenario.node[14].veinsmobility 	totalTime 	445
scalar RSUExampleScenario.node[14].veinsmobility 	stopTime 	473
scalar RSUExampleScenario.node[14].veinsmobility 	minSpeed 	0
scalar RSUExampleScenario.node[14].veinsmobility 	maxSpeed 	27.770110275866
scalar RSUExampleScenario.node[14].veinsmobility 	totalDistance 	3400.2627991678
scalar RSUExampleScenario.node[14].veinsmobility 	totalCO2Emission 	1019.0372372166
scalar RSUExampleScenario.node[11].nic.phy80211p 	busyTime 	5.0806451612903e-06
scalar RSUExampleScenario.node[11].nic.mac1609_4 	ReceivedUnicastPackets 	0
scalar RSUExampleScenario.node[11].nic.mac1609_4 	ReceivedBroadcasts 	17
scalar RSUExampleScenario.node[11].nic.mac1609_4 	SentPackets 	1
scalar RSUExampleScenario.node[11].nic.mac1609_4 	SNIRLostPackets 	4
scalar RSUExampleScenario.node[11].nic.mac1609_4 	RXTXLostPackets 	0
scalar RSUExampleScenario.node[11].nic.mac1609_4 	TotalLostPackets 	4
scalar RSUExampleScenario.node[11].nic.mac1609_4 	DroppedPacketsInMac 	0
scalar RSUExampleScenario.node[11].nic.mac1609_4 	TooLittleTime 	0
scalar RSUExampleScenario.node[11].nic.mac1609_4 	TimesIntoBackoff 	1
scalar RSUExampleScenario.node[11].nic.mac1609_4 	SlotsBackoff 	6
scalar RSUExampleScenario.node[11].nic.mac1609_4 	NumInternalContention 	0
scalar RSUExampleScenario.node[11].nic.mac1609_4 	totalBusyTime 	0.002281
scalar RSUExampleScenario.node[11].veinsmobility 	startTime 	20
scalar RSUExampleScenario.node[11].veinsmobility 	totalTime 	495
scalar RSUExampleScenario.node[11].veinsmobility 	stopTime 	516
scalar RSUExampleScenario.node[11].veinsmobility 	minSpeed 	0
scalar RSUExampleScenario.node[11].veinsmobility 	maxSpeed 	27.749026262658
scalar RSUExampleScenario.node[11].veinsmobility 	totalDistance 	3401.8312243883
scalar RSUExampleScenario.node[11].veinsmobility 	totalCO2Emission 	1158.7411291692
scalar RSUExampleScenario.node[16].nic.phy80211p 	busyTime 	5.6925996204934e-06
scalar RSUExampleScenario.node[16].nic.mac1609_4 	ReceivedUnicastPackets 	0
scalar RSUExampleScenario.node[16].nic.mac1609_4 	ReceivedBroadcasts 	17
scalar RSUExampleScenario.node[16].nic.mac1609_4 	SentPackets 	1
scalar RSUExampleScenario.node[16].nic.mac1609_4 	SNIRLostPackets 	8
scalar RSUExampleScenario.node[16].nic.mac1609_4 	RXTXLostPackets 	1
scalar RSUExampleScenario.node[16].nic.mac1609_4 	TotalLostPackets 	9
scalar RSUExampleScenario.node[16].nic.mac1609_4 	DroppedPacketsInMac 	0
scalar RSUExampleScenario.node[16].nic.mac1609_4 	TooLittleTime 	0
scalar RSUExampleScenario.node[16].nic.mac1609_4 	TimesIntoBackoff 	1
scalar RSUExampleScenario.node[16].nic.mac1609_4 	SlotsBackoff 	2
scalar RSUExampleScenario.node[16].nic.mac1609_4 	NumInternalContention 	0
scalar RSUExampleScenario.node[16].nic.mac1609_4 	totalBusyTime 	0.002641
scalar RSUExampleScenario.node[16].veinsmobility 	startTime 	30
scalar RSUExampleScenario.node[16].veinsmobility 	totalTime 	526
scalar RSUExampleScenario.node[16].veinsmobility 	stopTime 	557
scalar RSUExampleScenario.node[16].veinsmobility 	minSpeed 	0
scalar RSUExampleScenario.node[16].veinsmobility 	maxSpeed 	27.750498325201
scalar RSUExampleScenario.node[16].veinsmobility 	totalDistance 	3404.4738260762
scalar RSUExampleScenario.node[16].veinsmobility 	totalCO2Emission 	1155.9721265597
scalar RSUExampleScenario.node[6].nic.phy80211p 	busyTime 	4.3243243243243e-06
scalar RSUExampleScenario.node[6].nic.mac1609_4 	ReceivedUnicastPackets 	0
scalar RSUExampleScenario.node[6].nic.mac1609_4 	ReceivedBroadcasts 	16
scalar RSUExampleScenario.node[6].nic.mac1609_4 	SentPackets 	1
scalar RSUExampleScenario.node[6].nic.mac1609_4 	SNIRLostPackets 	4
scalar RSUExampleScenario.node[6].nic.mac1609_4 	RXTXLostPackets 	0
scalar RSUExampleScenario.node[6].nic.mac1609_4 	TotalLostPackets 	4
scalar RSUExampleScenario.node[6].nic.mac1609_4 	DroppedPacketsInMac 	0
scalar RSUExampleScenario.node[6].nic.mac1609_4 	TooLittleTime 	0
scalar RSUExampleScenario.node[6].nic.mac1609_4 	TimesIntoBackoff 	1
scalar RSUExampleScenario.node[6].nic.mac1609_4 	SlotsBackoff 	2
scalar RSUExampleScenario.node[6].nic.mac1609_4 	NumInternalContention 	0
scalar RSUExampleScenario.node[6].nic.mac1609_4 	totalBusyTime 	0.002281
scalar RSUExampleScenario.node[6].veinsmobility 	startTime 	12
scalar RSUExampleScenario.node[6].veinsmobility 	totalTime 	554
scalar RSUExampleScenario.node[6].veinsmobility 	stopTime 	567
scalar RSUExampleScenario.node[6].veinsmobility 	minSpeed 	0
scalar RSUExampleScenario.node[6].veinsmobility 	maxSpeed 	27.779343798762
scalar RSUExampleScenario.node[6].veinsmobility 	totalDistance 	3394.3156860949
scalar RSUExampleScenario.node[6].veinsmobility 	totalCO2Emission 	1078.9693606434
scalar RSUExampleScenario.node[39].nic.phy80211p 	busyTime 	1.008e-05
scalar RSUExampleScenario.node[39].nic.mac1609_4 	ReceivedUnicastPackets 	0
scalar RSUExampleScenario.node[39].nic.mac1609_4 	ReceivedBroadcasts 	30
scalar RSUExampleScenario.node[39].nic.mac1609_4 	SentPackets 	1
scalar RSUExampleScenario.node[39].nic.mac1609_4 	SNIRLostPackets 	12
scalar RSUExampleScenario.node[39].nic.mac1609_4 	RXTXLostPackets 	0
scalar RSUExampleScenario.node[39].nic.mac1609_4 	TotalLostPackets 	12
scalar RSUExampleScenario.node[39].nic.mac1609_4 	DroppedPacketsInMac 	0
scalar RSUExampleScenario.node[39].nic.mac1609_4 	TooLittleTime 	0
scalar RSUExampleScenario.node[39].nic.mac1609_4 	TimesIntoBackoff 	2
scalar RSUExampleScenario.node[39].nic.mac1609_4 	SlotsBackoff 	10
scalar RSUExampleScenario.node[39].nic.mac1609_4 	NumInternalContention 	0
scalar RSUExampleScenario.node[39].nic.mac1609_4 	totalBusyTime 	0.004321048292
scalar RSUExampleScenario.node[39].veinsmobility 	startTime 	72
scalar RSUExampleScenario.node[39].veinsmobility 	totalTime 	499
scalar RSUExampleScenario.node[39].veinsmobility 	stopTime 	572
scalar RSUExampleScenario.node[39].veinsmobility 	minSpeed 	0
scalar RSUExampleScenario.node[39].veinsmobility 	maxSpeed 	27.733655169588
scalar RSUExampleScenario.node[39].veinsmobility 	totalDistance 	3398.6035572953
scalar RSUExampleScenario.node[39].veinsmobility 	totalCO2Emission 	1210.8899436739
scalar RSUExampleScenario.node[13].nic.phy80211p 	busyTime 	5.2459016393443e-06
scalar RSUExampleScenario.node[13].nic.mac1609_4 	ReceivedUnicastPackets 	0
scalar RSUExampleScenario.node[13].nic.mac1609_4 	ReceivedBroadcasts 	16
scalar RSUExampleScenario.node[13].nic.mac1609_4 	SentPackets 	1
scalar RSUExampleScenario.node[13].nic.mac1609_4 	SNIRLostPackets 	8
scalar RSUExampleScenario.node[13].nic.mac1609_4 	RXTXLostPackets 	0
scalar RSUExampleScenario.node[13].nic.mac1609_4 	TotalLostPackets 	8
scalar RSUExampleScenario.node[13].nic.mac1609_4 	DroppedPacketsInMac 	0
scalar RSUExampleScenario.node[13].nic.mac1609_4 	TooLittleTime 	0
scalar RSUExampleScenario.node[13].nic.mac1609_4 	TimesIntoBackoff 	1
scalar RSUExampleScenario.node[13].nic.mac1609_4 	SlotsBackoff 	2
scalar RSUExampleScenario.node[13].nic.mac1609_4 	NumInternalContention 	0
scalar RSUExampleScenario.node[13].nic.mac1609_4 	totalBusyTime 	0.002521
scalar RSUExampleScenario.node[13].veinsmobility 	startTime 	25
scalar RSUExampleScenario.node[13].veinsmobility 	totalTime 	548
scalar RSUExampleScenario.node[13].veinsmobility 	stopTime 	574
scalar RSUExampleScenario.node[13].veinsmobility 	minSpeed 	0
scalar RSUExampleScenario.node[13].veinsmobility 	maxSpeed 	27.773450012803
scalar RSUExampleScenario.node[13].veinsmobility 	totalDistance 	3393.6131267143
scalar RSUExampleScenario.node[13].veinsmobility 	totalCO2Emission 	1135.4430185227
scalar RSUExampleScenario.node[8].nic.phy80211p 	busyTime 	4.2780748663102e-06
scalar RSUExampleScenario.node[8].nic.mac1609_4 	ReceivedUnicastPackets 	0
scalar RSUExampleScenario.node[8].nic.mac1609_4 	ReceivedBroadcasts 	17
scalar RSUExampleScenario.node[8].nic.mac1609_4 	SentPackets 	1
scalar RSUExampleScenario.node[8].nic.mac1609_4 	SNIRLostPackets 	3
scalar RSUExampleScenario.node[8].nic.mac1609_4 	RXTXLostPackets 	0
scalar RSUExampleScenario.node[8].nic.mac1609_4 	TotalLostPackets 	3
scalar RSUExampleScenario.node[8].nic.mac1609_4 	DroppedPacketsInMac 	0
scalar RSUExampleScenario.node[8].nic.mac1609_4 	TooLittleTime 	0
scalar RSUExampleScenario.node[8].nic.mac1609_4 	TimesIntoBackoff 	2
scalar RSUExampleScenario.node[8].nic.mac1609_4 	SlotsBackoff 	6
scalar RSUExampleScenario.node[8].nic.mac1609_4 	NumInternalContention 	0
scalar RSUExampleScenario.node[8].nic.mac1609_4 	totalBusyTime 	0.002281
scalar RSUExampleScenario.node[8].veinsmobility 	startTime 	16
scalar RSUExampleScenario.node[8].veinsmobility 	totalTime 	560
scalar RSUExampleScenario.node[8].veinsmobility 	stopTime 	577
scalar RSUExampleScenario.node[8].veinsmobility 	minSpeed 	0
scalar RSUExampleScenario.node[8].veinsmobility 	maxSpeed 	27.773561144182
scalar RSUExampleScenario.node[8].veinsmobility 	totalDistance 	3412.1240821006
scalar RSUExampleScenario.node[8].veinsmobility 	totalCO2Emission 	1163.0032382375
scalar RSUExampleScenario.node[17].nic.phy80211p 	busyTime 	5.2554744525547e-06
scalar RSUExampleScenario.node[17].nic.mac1609_4 	ReceivedUnicastPackets 	0
scalar RSUExampleScenario.node[17].nic.mac1609_4 	ReceivedBroadcasts 	16
scalar RSUExampleScenario.node[17].nic.mac1609_4 	SentPackets 	1
scalar RSUExampleScenario.node[17].nic.mac1609_4 	SNIRLostPackets 	8
scalar RSUExampleScenario.node[17].nic.mac1609_4 	RXTXLostPackets 	1
scalar RSUExampleScenario.node[17].nic.mac1609_4 	TotalLostPackets 	9
scalar RSUExampleScenario.node[17].nic.mac1609_4 	DroppedPacketsInMac 	0
scalar RSUExampleScenario.node[17].nic.mac1609_4 	TooLittleTime 	0
scalar RSUExampleScenario.node[17].nic.mac1609_4 	TimesIntoBackoff 	1
scalar RSUExampleScenario.node[17].nic.mac1609_4 	SlotsBackoff 	3
scalar RSUExampleScenario.node[17].nic.mac1609_4 	NumInternalContention 	0
scalar RSUExampleScenario.node[17].nic.mac1609_4 	totalBusyTime 	0.002521
scalar RSUExampleScenario.node[17].veinsmobility 	startTime 	31
scalar RSUExampleScenario.node[17].veinsmobility 	totalTime 	547
scalar RSUExampleScenario.node[17].veinsmobility 	stopTime 	579
scalar RSUExampleScenario.node[17].veinsmobility 	minSpeed 	0
scalar RSUExampleScenario.node[17].veinsmobility 	maxSpeed 	27.756701981639
scalar RSUExampleScenario.node[17].veinsmobility 	totalDistance 	3400.1442669394
scalar RSUExampleScenario.node[17].veinsmobility 	totalCO2Emission 	1175.0541956415
scalar RSUExampleScenario.node[10].nic.phy80211p 	busyTime 	4.270462633452e-06
scalar RSUExampleScenario.node[10].nic.mac1609_4 	ReceivedUnicastPackets 	0
scalar RSUExampleScenario.node[10].nic.mac1609_4 	ReceivedBroadcasts 	17
scalar RSUExampleScenario.node[10].nic.mac1609_4 	SentPackets 	1
scalar RSUExampleScenario.node[10].nic.mac1609_4 	SNIRLostPackets 	3
scalar RSUExampleScenario.node[10].nic.mac1609_4 	RXTXLostPackets 	1
scalar RSUExampleScenario.node[10].nic.mac1609_4 	TotalLostPackets 	4
scalar RSUExampleScenario.node[10].nic.mac1609_4 	DroppedPacketsInMac 	0
scalar RSUExampleScenario.node[10].nic.mac1609_4 	TooLittleTime 	0
scalar RSUExampleScenario.node[10].nic.mac1609_4 	TimesIntoBackoff 	1
scalar RSUExampleScenario.node[10].nic.mac1609_4 	SlotsBackoff 	1
scalar RSUExampleScenario.node[10].nic.mac1609_4 	NumInternalContention 	0
scalar RSUExampleScenario.node[10].nic.mac1609_4 	totalBusyTime 	0.002281
scalar RSUExampleScenario.node[10].veinsmobility 	startTime 	19
scalar RSUExampleScenario.node[10].veinsmobility 	totalTime 	561
scalar RSUExampleScenario.node[10].veinsmobility 	stopTime 	581
scalar RSUExampleScenario.node[10].veinsmobility 	minSpeed 	0
scalar RSUExampleScenario.node[10].veinsmobility 	maxSpeed 	27.751222434836
scalar RSUExampleScenario.node[10].veinsmobility 	totalDistance 	3401.3687391265
scalar RSUExampleScenario.node[10].veinsmobility 	totalCO2Emission 	1218.581106586
scalar RSUExampleScenario.node[18].nic.phy80211p 	busyTime 	5.6624319419238e-06
scalar RSUExampleScenario.node[18].nic.mac1609_4 	ReceivedUnicastPackets 	0
scalar RSUExampleScenario.node[18].nic.mac1609_4 	ReceivedBroadcasts 	16
scalar RSUExampleScenario.node[18].nic.mac1609_4 	SentPackets 	1
scalar RSUExampleScenario.node[18].nic.mac1609_4 	SNIRLostPackets 	10
scalar RSUExampleScenario.node[18].nic.mac1609_4 	RXTXLostPackets 	0
scalar RSUExampleScenario.node[18].nic.mac1609_4 	TotalLostPackets 	10
scalar RSUExampleScenario.node[18].nic.mac1609_4 	DroppedPacketsInMac 	0
scalar RSUExampleScenario.node[18].nic.mac1609_4 	TooLittleTime 	0
scalar RSUExampleScenario.node[18].nic.mac1609_4 	TimesIntoBackoff 	2
scalar RSUExampleScenario.node[18].nic.mac1609_4 	SlotsBackoff 	7
scalar RSUExampleScenario.node[18].nic.mac1609_4 	NumInternalContention 	0
scalar RSUExampleScenario.node[18].nic.mac1609_4 	totalBusyTime 	0.002641
scalar RSUExampleScenario.node[18].veinsmobility 	startTime 	33
scalar RSUExampleScenario.node[18].veinsmobility 	totalTime 	550
scalar RSUExampleScenario.node[18].veinsmobility 	stopTime 	584
scalar RSUExampleScenario.node[18].veinsmobility 	minSpeed 	0
scalar RSUExampleScenario.node[18].veinsmobility 	maxSpeed 	27.742962762248
scalar RSUExampleScenario.node[18].veinsmobility 	totalDistance 	3398.6393993469
scalar RSUExampleScenario.node[18].veinsmobility 	totalCO2Emission 	1191.0590667276
scalar RSUExampleScenario.node[53].nic.phy80211p 	busyTime 	4.990099009901e-06
scalar RSUExampleScenario.node[53].nic.mac1609_4 	ReceivedUnicastPackets 	0
scalar RSUExampleScenario.node[53].nic.mac1609_4 	ReceivedBroadcasts 	16
scalar RSUExampleScenario.node[53].nic.mac1609_4 	SentPackets 	1
scalar RSUExampleScenario.node[53].nic.mac1609_4 	SNIRLostPackets 	5
scalar RSUExampleScenario.node[53].nic.mac1609_4 	RXTXLostPackets 	0
scalar RSUExampleScenario.node[53].nic.mac1609_4 	TotalLostPackets 	5
scalar RSUExampleScenario.node[53].nic.mac1609_4 	DroppedPacketsInMac 	0
scalar RSUExampleScenario.node[53].nic.mac1609_4 	TooLittleTime 	0
scalar RSUExampleScenario.node[53].nic.mac1609_4 	TimesIntoBackoff 	2
scalar RSUExampleScenario.node[53].nic.mac1609_4 	SlotsBackoff 	1
scalar RSUExampleScenario.node[53].nic.mac1609_4 	NumInternalContention 	0
scalar RSUExampleScenario.node[53].nic.mac1609_4 	totalBusyTime 	0.002281
scalar RSUExampleScenario.node[53].veinsmobility 	startTime 	106
scalar RSUExampleScenario.node[53].veinsmobility 	totalTime 	504
scalar RSUExampleScenario.node[53].veinsmobility 	stopTime 	611
scalar RSUExampleScenario.node[53].veinsmobility 	minSpeed 	0
scalar RSUExampleScenario.node[53].veinsmobility 	maxSpeed 	27.727539999494
scalar RSUExampleScenario.node[53].veinsmobility 	totalDistance 	3397.5215829104
scalar RSUExampleScenario.node[53].veinsmobility 	totalCO2Emission 	1275.8878961745
scalar RSUExampleScenario.node[12].nic.phy80211p 	busyTime 	4.6076794657763e-06
scalar RSUExampleScenario.node[12].nic.mac1609_4 	ReceivedUnicastPackets 	0
scalar RSUExampleScenario.node[12].nic.mac1609_4 	ReceivedBroadcasts 	15
scalar RSUExampleScenario.node[12].nic.mac1609_4 	SentPackets 	1
scalar RSUExampleScenario.node[12].nic.mac1609_4 	SNIRLostPackets 	8
scalar RSUExampleScenario.node[12].nic.mac1609_4 	RXTXLostPackets 	0
scalar RSUExampleScenario.node[12].nic.mac1609_4 	TotalLostPackets 	8
scalar RSUExampleScenario.node[12].nic.mac1609_4 	DroppedPacketsInMac 	0
scalar RSUExampleScenario.node[12].nic.mac1609_4 	TooLittleTime 	0
scalar RSUExampleScenario.node[12].nic.mac1609_4 	TimesIntoBackoff 	2
scalar RSUExampleScenario.node[12].nic.mac1609_4 	SlotsBackoff 	6
scalar RSUExampleScenario.node[12].nic.mac1609_4 	NumInternalContention 	0
scalar RSUExampleScenario.node[12].nic.mac1609_4 	totalBusyTime 	0.002401
scalar RSUExampleScenario.node[12].veinsmobility 	startTime 	23
scalar RSUExampleScenario.node[12].veinsmobility 	totalTime 	598
scalar RSUExampleScenario.node[12].veinsmobility 	stopTime 	622
scalar RSUExampleScenario.node[12].veinsmobility 	minSpeed 	0
scalar RSUExampleScenario.node[12].veinsmobility 	maxSpeed 	27.772976816192
scalar RSUExampleScenario.node[12].veinsmobility 	totalDistance 	3397.0640361734
scalar RSUExampleScenario.node[12].veinsmobility 	totalCO2Emission 	1100.0364500496
scalar RSUExampleScenario.node[7].nic.phy80211p 	busyTime 	3.9344262295082e-06
scalar RSUExampleScenario.node[7].nic.mac1609_4 	ReceivedUnicastPackets 	0
scalar RSUExampleScenario.node[7].nic.mac1609_4 	ReceivedBroadcasts 	17
scalar RSUExampleScenario.node[7].nic.mac1609_4 	SentPackets 	1
scalar RSUExampleScenario.node[7].nic.mac1609_4 	SNIRLostPackets 	3
scalar RSUExampleScenario.node[7].nic.mac1609_4 	RXTXLostPackets 	0
scalar RSUExampleScenario.node[7].nic.mac1609_4 	TotalLostPackets 	3
scalar RSUExampleScenario.node[7].nic.mac1609_4 	DroppedPacketsInMac 	0
scalar RSUExampleScenario.node[7].nic.mac1609_4 	TooLittleTime 	0
scalar RSUExampleScenario.node[7].nic.mac1609_4 	TimesIntoBackoff 	2
scalar RSUExampleScenario.node[7].nic.mac1609_4 	SlotsBackoff 	8
scalar RSUExampleScenario.node[7].nic.mac1609_4 	NumInternalContention 	0
scalar RSUExampleScenario.node[7].nic.mac1609_4 	totalBusyTime 	0.002281
scalar RSUExampleScenario.node[7].veinsmobility 	startTime 	14
scalar RSUExampleScenario.node[7].veinsmobility 	totalTime 	609
scalar RSUExampleScenario.node[7].veinsmobility 	stopTime 	624
scalar RSUExampleScenario.node[7].veinsmobility 	minSpeed 	0
scalar RSUExampleScenario.node[7].veinsmobility 	maxSpeed 	27.737601034408
scalar RSUExampleScenario.node[7].veinsmobility 	totalDistance 	3404.9903069053
scalar RSUExampleScenario.node[7].veinsmobility 	totalCO2Emission 	1291.845828432
scalar RSUExampleScenario.node[15].nic.phy80211p 	busyTime 	5.2173913043478e-06
scalar RSUExampleScenario.node[15].nic.mac1609_4 	ReceivedUnicastPackets 	0
scalar RSUExampleScenario.node[15].nic.mac1609_4 	ReceivedBroadcasts 	16
scalar RSUExampleScenario.node[15].nic.mac1609_4 	SentPackets 	1
scalar RSUExampleScenario.node[15].nic.mac1609_4 	SNIRLostPackets 	10
scalar RSUExampleScenario.node[15].nic.mac1609_4 	RXTXLostPackets 	0
scalar RSUExampleScenario.node[15].nic.mac1609_4 	TotalLostPackets 	10
scalar RSUExampleScenario.node[15].nic.mac1609_4 	DroppedPacketsInMac 	0
scalar RSUExampleScenario.node[15].nic.mac1609_4 	TooLittleTime 	0
scalar RSUExampleScenario.node[15].nic.mac1609_4 	TimesIntoBackoff 	2
scalar RSUExampleScenario.node[15].nic.mac1609_4 	SlotsBackoff 	6
scalar RSUExampleScenario.node[15].nic.mac1609_4 	NumInternalContention 	0
scalar RSUExampleScenario.node[15].nic.mac1609_4 	totalBusyTime 	0.002641
scalar RSUExampleScenario.node[15].veinsmobility 	startTime 	28
scalar RSUExampleScenario.node[15].veinsmobility 	totalTime 	597
scalar RSUExampleScenario.node[15].veinsmobility 	stopTime 	626
scalar RSUExampleScenario.node[15].veinsmobility 	minSpeed 	0
scalar RSUExampleScenario.node[15].veinsmobility 	maxSpeed 	27.767863670643
scalar RSUExampleScenario.node[15].veinsmobility 	totalDistance 	3399.4122709533
scalar RSUExampleScenario.node[15].veinsmobility 	totalCO2Emission 	1274.463871243
scalar RSUExampleScenario.node[55].nic.phy80211p 	busyTime 	4.7908745247148e-06
scalar RSUExampleScenario.node[55].nic.mac1609_4 	ReceivedUnicastPackets 	0
scalar RSUExampleScenario.node[55].nic.mac1609_4 	ReceivedBroadcasts 	15
scalar RSUExampleScenario.node[55].nic.mac1609_4 	SentPackets 	1
scalar RSUExampleScenario.node[55].nic.mac1609_4 	SNIRLostPackets 	6
scalar RSUExampleScenario.node[55].nic.mac1609_4 	RXTXLostPackets 	0
scalar RSUExampleScenario.node[55].nic.mac1609_4 	TotalLostPackets 	6
scalar RSUExampleScenario.node[55].nic.mac1609_4 	DroppedPacketsInMac 	0
scalar RSUExampleScenario.node[55].nic.mac1609_4 	TooLittleTime 	0
scalar RSUExampleScenario.node[55].nic.mac1609_4 	TimesIntoBackoff 	1
scalar RSUExampleScenario.node[55].nic.mac1609_4 	SlotsBackoff 	7
scalar RSUExampleScenario.node[55].nic.mac1609_4 	NumInternalContention 	0
scalar RSUExampleScenario.node[55].nic.mac1609_4 	totalBusyTime 	0.002281047867
scalar RSUExampleScenario.node[55].veinsmobility 	startTime 	110
scalar RSUExampleScenario.node[55].veinsmobility 	totalTime 	525
scalar RSUExampleScenario.node[55].veinsmobility 	stopTime 	636
scalar RSUExampleScenario.node[55].veinsmobility 	minSpeed 	0
scalar RSUExampleScenario.node[55].veinsmobility 	maxSpeed 	27.732714085029
scalar RSUExampleScenario.node[55].veinsmobility 	totalDistance 	3399.6998114372
scalar RSUExampleScenario.node[55].veinsmobility 	totalCO2Emission 	1356.5803247426
scalar RSUExampleScenario.node[30].nic.phy80211p 	busyTime 	6.3698630136986e-06
scalar RSUExampleScenario.node[30].nic.mac1609_4 	ReceivedUnicastPackets 	0
scalar RSUExampleScenario.node[30].nic.mac1609_4 	ReceivedBroadcasts 	16
scalar RSUExampleScenario.node[30].nic.mac1609_4 	SentPackets 	1
scalar RSUExampleScenario.node[30].nic.mac1609_4 	SNIRLostPackets 	15
scalar RSUExampleScenario.node[30].nic.mac1609_4 	RXTXLostPackets 	0
scalar RSUExampleScenario.node[30].nic.mac1609_4 	TotalLostPackets 	15
scalar RSUExampleScenario.node[30].nic.mac1609_4 	DroppedPacketsInMac 	0
scalar RSUExampleScenario.node[30].nic.mac1609_4 	TooLittleTime 	0
scalar RSUExampleScenario.node[30].nic.mac1609_4 	TimesIntoBackoff 	1
scalar RSUExampleScenario.node[30].nic.mac1609_4 	SlotsBackoff 	0
scalar RSUExampleScenario.node[30].nic.mac1609_4 	NumInternalContention 	0
scalar RSUExampleScenario.node[30].nic.mac1609_4 	totalBusyTime 	0.002919604165
scalar RSUExampleScenario.node[30].veinsmobility 	startTime 	55
scalar RSUExampleScenario.node[30].veinsmobility 	totalTime 	583
scalar RSUExampleScenario.node[30].veinsmobility 	stopTime 	639
scalar RSUExampleScenario.node[30].veinsmobility 	minSpeed 	0
scalar RSUExampleScenario.node[30].veinsmobility 	maxSpeed 	16.646426540902
scalar RSUExampleScenario.node[30].veinsmobility 	totalDistance 	3255.0659682613
scalar RSUExampleScenario.node[30].veinsmobility 	totalCO2Emission 	1155.6642433947
scalar RSUExampleScenario.node[27].nic.phy80211p 	busyTime 	6.4864864864865e-06
scalar RSUExampleScenario.node[27].nic.mac1609_4 	ReceivedUnicastPackets 	0
scalar RSUExampleScenario.node[27].nic.mac1609_4 	ReceivedBroadcasts 	15
scalar RSUExampleScenario.node[27].nic.mac1609_4 	SentPackets 	1
scalar RSUExampleScenario.node[27].nic.mac1609_4 	SNIRLostPackets 	17
scalar RSUExampleScenario.node[27].nic.mac1609_4 	RXTXLostPackets 	0
scalar RSUExampleScenario.node[27].nic.mac1609_4 	TotalLostPackets 	17
scalar RSUExampleScenario.node[27].nic.mac1609_4 	DroppedPacketsInMac 	0
scalar RSUExampleScenario.node[27].nic.mac1609_4 	TooLittleTime 	0
scalar RSUExampleScenario.node[27].nic.mac1609_4 	TimesIntoBackoff 	2
scalar RSUExampleScenario.node[27].nic.mac1609_4 	SlotsBackoff 	4
scalar RSUExampleScenario.node[27].nic.mac1609_4 	NumInternalContention 	0
scalar RSUExampleScenario.node[27].nic.mac1609_4 	totalBusyTime 	0.002881081776
scalar RSUExampleScenario.node[27].veinsmobility 	startTime 	49
scalar RSUExampleScenario.node[27].veinsmobility 	totalTime 	591
scalar RSUExampleScenario.node[27].veinsmobility 	stopTime 	641
scalar RSUExampleScenario.node[27].veinsmobility 	minSpeed 	0
scalar RSUExampleScenario.node[27].veinsmobility 	maxSpeed 	16.6637548964
scalar RSUExampleScenario.node[27].veinsmobility 	totalDistance 	3351.378488181
scalar RSUExampleScenario.node[27].veinsmobility 	totalCO2Emission 	1220.3793822532
scalar RSUExampleScenario.node[51].nic.phy80211p 	busyTime 	4.4036697247706e-06
scalar RSUExampleScenario.node[51].nic.mac1609_4 	ReceivedUnicastPackets 	0
scalar RSUExampleScenario.node[51].nic.mac1609_4 	ReceivedBroadcasts 	16
scalar RSUExampleScenario.node[51].nic.mac1609_4 	SentPackets 	1
scalar RSUExampleScenario.node[51].nic.mac1609_4 	SNIRLostPackets 	4
scalar RSUExampleScenario.node[51].nic.mac1609_4 	RXTXLostPackets 	0
scalar RSUExampleScenario.node[51].nic.mac1609_4 	TotalLostPackets 	4
scalar RSUExampleScenario.node[51].nic.mac1609_4 	DroppedPacketsInMac 	0
scalar RSUExampleScenario.node[51].nic.mac1609_4 	TooLittleTime 	0
scalar RSUExampleScenario.node[51].nic.mac1609_4 	TimesIntoBackoff 	2
scalar RSUExampleScenario.node[51].nic.mac1609_4 	SlotsBackoff 	5
scalar RSUExampleScenario.node[51].nic.mac1609_4 	NumInternalContention 	0
scalar RSUExampleScenario.node[51].nic.mac1609_4 	totalBusyTime 	0.002281
scalar RSUExampleScenario.node[51].veinsmobility 	startTime 	101
scalar RSUExampleScenario.node[51].veinsmobility 	totalTime 	544
scalar RSUExampleScenario.node[51].veinsmobility 	stopTime 	646
scalar RSUExampleScenario.node[51].veinsmobility 	minSpeed 	0
scalar RSUExampleScenario.node[51].veinsmobility 	maxSpeed 	27.775254814872
scalar RSUExampleScenario.node[51].veinsmobility 	totalDistance 	3400.2384880974
scalar RSUExampleScenario.node[51].veinsmobility 	totalCO2Emission 	1216.3758248842
scalar RSUExampleScenario.node[33].nic.phy80211p 	busyTime 	6.1224489795918e-06
scalar RSUExampleScenario.node[33].nic.mac1609_4 	ReceivedUnicastPackets 	0
scalar RSUExampleScenario.node[33].nic.mac1609_4 	ReceivedBroadcasts 	22
scalar RSUExampleScenario.node[33].nic.mac1609_4 	SentPackets 	1
scalar RSUExampleScenario.node[33].nic.mac1609_4 	SNIRLostPackets 	8
scalar RSUExampleScenario.node[33].nic.mac1609_4 	RXTXLostPackets 	0
scalar RSUExampleScenario.node[33].nic.mac1609_4 	TotalLostPackets 	8
scalar RSUExampleScenario.node[33].nic.mac1609_4 	DroppedPacketsInMac 	0
scalar RSUExampleScenario.node[33].nic.mac1609_4 	TooLittleTime 	0
scalar RSUExampleScenario.node[33].nic.mac1609_4 	TimesIntoBackoff 	1
scalar RSUExampleScenario.node[33].nic.mac1609_4 	SlotsBackoff 	0
scalar RSUExampleScenario.node[33].nic.mac1609_4 	NumInternalContention 	0
scalar RSUExampleScenario.node[33].nic.mac1609_4 	totalBusyTime 	0.003121094183
scalar RSUExampleScenario.node[33].veinsmobility 	startTime 	60
scalar RSUExampleScenario.node[33].veinsmobility 	totalTime 	587
scalar RSUExampleScenario.node[33].veinsmobility 	stopTime 	648
scalar RSUExampleScenario.node[33].veinsmobility 	minSpeed 	0
scalar RSUExampleScenario.node[33].veinsmobility 	maxSpeed 	27.754512508195
scalar RSUExampleScenario.node[33].veinsmobility 	totalDistance 	3401.7113129994
scalar RSUExampleScenario.node[33].veinsmobility 	totalCO2Emission 	1351.5536591019
scalar RSUExampleScenario.node[28].nic.phy80211p 	busyTime 	5.8e-06
scalar RSUExampleScenario.node[28].nic.mac1609_4 	ReceivedUnicastPackets 	0
scalar RSUExampleScenario.node[28].nic.mac1609_4 	ReceivedBroadcasts 	17
scalar RSUExampleScenario.node[28].nic.mac1609_4 	SentPackets 	1
scalar RSUExampleScenario.node[28].nic.mac1609_4 	SNIRLostPackets 	12
scalar RSUExampleScenario.node[28].nic.mac1609_4 	RXTXLostPackets 	2
scalar RSUExampleScenario.node[28].nic.mac1609_4 	TotalLostPackets 	14
scalar RSUExampleScenario.node[28].nic.mac1609_4 	DroppedPacketsInMac 	0
scalar RSUExampleScenario.node[28].nic.mac1609_4 	TooLittleTime 	0
scalar RSUExampleScenario.node[28].nic.mac1609_4 	TimesIntoBackoff 	1
scalar RSUExampleScenario.node[28].nic.mac1609_4 	SlotsBackoff 	2
scalar RSUExampleScenario.node[28].nic.mac1609_4 	NumInternalContention 	0
scalar RSUExampleScenario.node[28].nic.mac1609_4 	totalBusyTime 	0.002881
scalar RSUExampleScenario.node[28].veinsmobility 	startTime 	51
scalar RSUExampleScenario.node[28].veinsmobility 	totalTime 	599
scalar RSUExampleScenario.node[28].veinsmobility 	stopTime 	651
scalar RSUExampleScenario.node[28].veinsmobility 	minSpeed 	0
scalar RSUExampleScenario.node[28].veinsmobility 	maxSpeed 	16.665104344543
scalar RSUExampleScenario.node[28].veinsmobility 	totalDistance 	3350.2093171883
scalar RSUExampleScenario.node[28].veinsmobility 	totalCO2Emission 	1176.1678096618
scalar RSUExampleScenario.node[29].nic.phy80211p 	busyTime 	6.2e-06
scalar RSUExampleScenario.node[29].nic.mac1609_4 	ReceivedUnicastPackets 	0
scalar RSUExampleScenario.node[29].nic.mac1609_4 	ReceivedBroadcasts 	16
scalar RSUExampleScenario.node[29].nic.mac1609_4 	SentPackets 	1
scalar RSUExampleScenario.node[29].nic.mac1609_4 	SNIRLostPackets 	15
scalar RSUExampleScenario.node[29].nic.mac1609_4 	RXTXLostPackets 	0
scalar RSUExampleScenario.node[29].nic.mac1609_4 	TotalLostPackets 	15
scalar RSUExampleScenario.node[29].nic.mac1609_4 	DroppedPacketsInMac 	0
scalar RSUExampleScenario.node[29].nic.mac1609_4 	TooLittleTime 	0
scalar RSUExampleScenario.node[29].nic.mac1609_4 	TimesIntoBackoff 	1
scalar RSUExampleScenario.node[29].nic.mac1609_4 	SlotsBackoff 	2
scalar RSUExampleScenario.node[29].nic.mac1609_4 	NumInternalContention 	0
scalar RSUExampleScenario.node[29].nic.mac1609_4 	totalBusyTime 	0.002881
scalar RSUExampleScenario.node[29].veinsmobility 	startTime 	53
scalar RSUExampleScenario.node[29].veinsmobility 	totalTime 	599
scalar RSUExampleScenario.node[29].veinsmobility 	stopTime 	653
scalar RSUExampleScenario.node[29].veinsmobility 	minSpeed 	0
scalar RSUExampleScenario.node[29].veinsmobility 	maxSpeed 	16.668481097631
scalar RSUExampleScenario.node[29].veinsmobility 	totalDistance 	3257.2490802541
scalar RSUExampleScenario.node[29].veinsmobility 	totalCO2Emission 	1162.3532744291
scalar RSUExampleScenario.node[52].nic.phy80211p 	busyTime 	4.5569620253165e-06
scalar RSUExampleScenario.node[52].nic.mac1609_4 	ReceivedUnicastPackets 	0
scalar RSUExampleScenario.node[52].nic.mac1609_4 	ReceivedBroadcasts 	15
scalar RSUExampleScenario.node[52].nic.mac1609_4 	SentPackets 	1
scalar RSUExampleScenario.node[52].nic.mac1609_4 	SNIRLostPackets 	6
scalar RSUExampleScenario.node[52].nic.mac1609_4 	RXTXLostPackets 	0
scalar RSUExampleScenario.node[52].nic.mac1609_4 	TotalLostPackets 	6
scalar RSUExampleScenario.node[52].nic.mac1609_4 	DroppedPacketsInMac 	0
scalar RSUExampleScenario.node[52].nic.mac1609_4 	TooLittleTime 	0
scalar RSUExampleScenario.node[52].nic.mac1609_4 	TimesIntoBackoff 	1
scalar RSUExampleScenario.node[52].nic.mac1609_4 	SlotsBackoff 	7
scalar RSUExampleScenario.node[52].nic.mac1609_4 	NumInternalContention 	0
scalar RSUExampleScenario.node[52].nic.mac1609_4 	totalBusyTime 	0.002281
scalar RSUExampleScenario.node[52].veinsmobility 	startTime 	103
scalar RSUExampleScenario.node[52].veinsmobility 	totalTime 	552
scalar RSUExampleScenario.node[52].veinsmobility 	stopTime 	656
scalar RSUExampleScenario.node[52].veinsmobility 	minSpeed 	0
scalar RSUExampleScenario.node[52].veinsmobility 	maxSpeed 	27.777460926455
scalar RSUExampleScenario.node[52].veinsmobility 	totalDistance 	3404.8627741563
scalar RSUExampleScenario.node[52].veinsmobility 	totalCO2Emission 	1284.5756458338
scalar RSUExampleScenario.node[59].nic.phy80211p 	busyTime 	4.6753246753247e-06
scalar RSUExampleScenario.node[59].nic.mac1609_4 	ReceivedUnicastPackets 	0
scalar RSUExampleScenario.node[59].nic.mac1609_4 	ReceivedBroadcasts 	15
scalar RSUExampleScenario.node[59].nic.mac1609_4 	SentPackets 	1
scalar RSUExampleScenario.node[59].nic.mac1609_4 	SNIRLostPackets 	6
scalar RSUExampleScenario.node[59].nic.mac1609_4 	RXTXLostPackets 	1
scalar RSUExampleScenario.node[59].nic.mac1609_4 	TotalLostPackets 	7
scalar RSUExampleScenario.node[59].nic.mac1609_4 	DroppedPacketsInMac 	0
scalar RSUExampleScenario.node[59].nic.mac1609_4 	TooLittleTime 	0
scalar RSUExampleScenario.node[59].nic.mac1609_4 	TimesIntoBackoff 	2
scalar RSUExampleScenario.node[59].nic.mac1609_4 	SlotsBackoff 	12
scalar RSUExampleScenario.node[59].nic.mac1609_4 	NumInternalContention 	0
scalar RSUExampleScenario.node[59].nic.mac1609_4 	totalBusyTime 	0.002281
scalar RSUExampleScenario.node[59].veinsmobility 	startTime 	119
scalar RSUExampleScenario.node[59].veinsmobility 	totalTime 	538
scalar RSUExampleScenario.node[59].veinsmobility 	stopTime 	658
scalar RSUExampleScenario.node[59].veinsmobility 	minSpeed 	0
scalar RSUExampleScenario.node[59].veinsmobility 	maxSpeed 	27.73783998373
scalar RSUExampleScenario.node[59].veinsmobility 	totalDistance 	3399.6355330742
scalar RSUExampleScenario.node[59].veinsmobility 	totalCO2Emission 	1326.9631026907
scalar RSUExampleScenario.node[57].nic.phy80211p 	busyTime 	4.6069469835466e-06
scalar RSUExampleScenario.node[57].nic.mac1609_4 	ReceivedUnicastPackets 	0
scalar RSUExampleScenario.node[57].nic.mac1609_4 	ReceivedBroadcasts 	15
scalar RSUExampleScenario.node[57].nic.mac1609_4 	SentPackets 	1
scalar RSUExampleScenario.node[57].nic.mac1609_4 	SNIRLostPackets 	6
scalar RSUExampleScenario.node[57].nic.mac1609_4 	RXTXLostPackets 	0
scalar RSUExampleScenario.node[57].nic.mac1609_4 	TotalLostPackets 	6
scalar RSUExampleScenario.node[57].nic.mac1609_4 	DroppedPacketsInMac 	0
scalar RSUExampleScenario.node[57].nic.mac1609_4 	TooLittleTime 	0
scalar RSUExampleScenario.node[57].nic.mac1609_4 	TimesIntoBackoff 	1
scalar RSUExampleScenario.node[57].nic.mac1609_4 	SlotsBackoff 	7
scalar RSUExampleScenario.node[57].nic.mac1609_4 	NumInternalContention 	0
scalar RSUExampleScenario.node[57].nic.mac1609_4 	totalBusyTime 	0.002281139369
scalar RSUExampleScenario.node[57].veinsmobility 	startTime 	114
scalar RSUExampleScenario.node[57].veinsmobility 	totalTime 	546
scalar RSUExampleScenario.node[57].veinsmobility 	stopTime 	661
scalar RSUExampleScenario.node[57].veinsmobility 	minSpeed 	0
scalar RSUExampleScenario.node[57].veinsmobility 	maxSpeed 	27.762011681758
scalar RSUExampleScenario.node[57].veinsmobility 	totalDistance 	3405.6816172192
scalar RSUExampleScenario.node[57].veinsmobility 	totalCO2Emission 	1339.7961804805
scalar RSUExampleScenario.node[56].nic.phy80211p 	busyTime 	4.4444444444444e-06
scalar RSUExampleScenario.node[56].nic.mac1609_4 	ReceivedUnicastPackets 	0
scalar RSUExampleScenario.node[56].nic.mac1609_4 	ReceivedBroadcasts 	15
scalar RSUExampleScenario.node[56].nic.mac1609_4 	SentPackets 	1
scalar RSUExampleScenario.node[56].nic.mac1609_4 	SNIRLostPackets 	6
scalar RSUExampleScenario.node[56].nic.mac1609_4 	RXTXLostPackets 	0
scalar RSUExampleScenario.node[56].nic.mac1609_4 	TotalLostPackets 	6
scalar RSUExampleScenario.node[56].nic.mac1609_4 	DroppedPacketsInMac 	0
scalar RSUExampleScenario.node[56].nic.mac1609_4 	TooLittleTime 	0
scalar RSUExampleScenario.node[56].nic.mac1609_4 	TimesIntoBackoff 	1
scalar RSUExampleScenario.node[56].nic.mac1609_4 	SlotsBackoff 	5
scalar RSUExampleScenario.node[56].nic.mac1609_4 	NumInternalContention 	0
scalar RSUExampleScenario.node[56].nic.mac1609_4 	totalBusyTime 	0.002281094723
scalar RSUExampleScenario.node[56].veinsmobility 	startTime 	112
scalar RSUExampleScenario.node[56].veinsmobility 	totalTime 	566
scalar RSUExampleScenario.node[56].veinsmobility 	stopTime 	679
scalar RSUExampleScenario.node[56].veinsmobility 	minSpeed 	0
scalar RSUExampleScenario.node[56].veinsmobility 	maxSpeed 	27.776615851009
scalar RSUExampleScenario.node[56].veinsmobility 	totalDistance 	3392.5608181464
scalar RSUExampleScenario.node[56].veinsmobility 	totalCO2Emission 	1335.4878335125
scalar RSUExampleScenario.node[64].nic.phy80211p 	busyTime 	7.1869328493648e-06
scalar RSUExampleScenario.node[64].nic.mac1609_4 	ReceivedUnicastPackets 	0
scalar RSUExampleScenario.node[64].nic.mac1609_4 	ReceivedBroadcasts 	18
scalar RSUExampleScenario.node[64].nic.mac1609_4 	SentPackets 	1
scalar RSUExampleScenario.node[64].nic.mac1609_4 	SNIRLostPackets 	15
scalar RSUExampleScenario.node[64].nic.mac1609_4 	RXTXLostPackets 	0
scalar RSUExampleScenario.node[64].nic.mac1609_4 	TotalLostPackets 	15
scalar RSUExampleScenario.node[64].nic.mac1609_4 	DroppedPacketsInMac 	0
scalar RSUExampleScenario.node[64].nic.mac1609_4 	TooLittleTime 	0
scalar RSUExampleScenario.node[64].nic.mac1609_4 	TimesIntoBackoff 	2
scalar RSUExampleScenario.node[64].nic.mac1609_4 	SlotsBackoff 	4
scalar RSUExampleScenario.node[64].nic.mac1609_4 	NumInternalContention 	0
scalar RSUExampleScenario.node[64].nic.mac1609_4 	totalBusyTime 	0.003001
scalar RSUExampleScenario.node[64].veinsmobility 	startTime 	131
scalar RSUExampleScenario.node[64].veinsmobility 	totalTime 	550
scalar RSUExampleScenario.node[64].veinsmobility 	stopTime 	682
scalar RSUExampleScenario.node[64].veinsmobility 	minSpeed 	0
scalar RSUExampleScenario.node[64].veinsmobility 	maxSpeed 	27.779872134076
scalar RSUExampleScenario.node[64].veinsmobility 	totalDistance 	3399.5678933055
scalar RSUExampleScenario.node[64].veinsmobility 	totalCO2Emission 	1297.6224178514
scalar RSUExampleScenario.node[62].nic.phy80211p 	busyTime 	6.0627177700348e-06
scalar RSUExampleScenario.node[62].nic.mac1609_4 	ReceivedUnicastPackets 	0
scalar RSUExampleScenario.node[62].nic.mac1609_4 	ReceivedBroadcasts 	17
scalar RSUExampleScenario.node[62].nic.mac1609_4 	SentPackets 	1
scalar RSUExampleScenario.node[62].nic.mac1609_4 	SNIRLostPackets 	12
scalar RSUExampleScenario.node[62].nic.mac1609_4 	RXTXLostPackets 	1
scalar RSUExampleScenario.node[62].nic.mac1609_4 	TotalLostPackets 	13
scalar RSUExampleScenario.node[62].nic.mac1609_4 	DroppedPacketsInMac 	0
scalar RSUExampleScenario.node[62].nic.mac1609_4 	TooLittleTime 	0
scalar RSUExampleScenario.node[62].nic.mac1609_4 	TimesIntoBackoff 	2
scalar RSUExampleScenario.node[62].nic.mac1609_4 	SlotsBackoff 	5
scalar RSUExampleScenario.node[62].nic.mac1609_4 	NumInternalContention 	0
scalar RSUExampleScenario.node[62].nic.mac1609_4 	totalBusyTime 	0.002641
scalar RSUExampleScenario.node[62].veinsmobility 	startTime 	126
scalar RSUExampleScenario.node[62].veinsmobility 	totalTime 	573
scalar RSUExampleScenario.node[62].veinsmobility 	stopTime 	700
scalar RSUExampleScenario.node[62].veinsmobility 	minSpeed 	0
scalar RSUExampleScenario.node[62].veinsmobility 	maxSpeed 	27.776662613191
scalar RSUExampleScenario.node[62].veinsmobility 	totalDistance 	3409.5907287508
scalar RSUExampleScenario.node[62].veinsmobility 	totalCO2Emission 	1341.0273754764
scalar RSUExampleScenario.node[54].nic.phy80211p 	busyTime 	4.040404040404e-06
scalar RSUExampleScenario.node[54].nic.mac1609_4 	ReceivedUnicastPackets 	0
scalar RSUExampleScenario.node[54].nic.mac1609_4 	ReceivedBroadcasts 	16
scalar RSUExampleScenario.node[54].nic.mac1609_4 	SentPackets 	1
scalar RSUExampleScenario.node[54].nic.mac1609_4 	SNIRLostPackets 	4
scalar RSUExampleScenario.node[54].nic.mac1609_4 	RXTXLostPackets 	1
scalar RSUExampleScenario.node[54].nic.mac1609_4 	TotalLostPackets 	5
scalar RSUExampleScenario.node[54].nic.mac1609_4 	DroppedPacketsInMac 	0
scalar RSUExampleScenario.node[54].nic.mac1609_4 	TooLittleTime 	0
scalar RSUExampleScenario.node[54].nic.mac1609_4 	TimesIntoBackoff 	2
scalar RSUExampleScenario.node[54].nic.mac1609_4 	SlotsBackoff 	10
scalar RSUExampleScenario.node[54].nic.mac1609_4 	NumInternalContention 	0
scalar RSUExampleScenario.node[54].nic.mac1609_4 	totalBusyTime 	0.002281
scalar RSUExampleScenario.node[54].veinsmobility 	startTime 	108
scalar RSUExampleScenario.node[54].veinsmobility 	totalTime 	593
scalar RSUExampleScenario.node[54].veinsmobility 	stopTime 	702
scalar RSUExampleScenario.node[54].veinsmobility 	minSpeed 	0
scalar RSUExampleScenario.node[54].veinsmobility 	maxSpeed 	27.738540891781
scalar RSUExampleScenario.node[54].veinsmobility 	totalDistance 	3399.8876179123
scalar RSUExampleScenario.node[54].veinsmobility 	totalCO2Emission 	1417.0884592342
scalar RSUExampleScenario.node[60].nic.phy80211p 	busyTime 	5.1457975986278e-06
scalar RSUExampleScenario.node[60].nic.mac1609_4 	ReceivedUnicastPackets 	0
scalar RSUExampleScenario.node[60].nic.mac1609_4 	ReceivedBroadcasts 	16
scalar RSUExampleScenario.node[60].nic.mac1609_4 	SentPackets 	1
scalar RSUExampleScenario.node[60].nic.mac1609_4 	SNIRLostPackets 	9
scalar RSUExampleScenario.node[60].nic.mac1609_4 	RXTXLostPackets 	0
scalar RSUExampleScenario.node[60].nic.mac1609_4 	TotalLostPackets 	9
scalar RSUExampleScenario.node[60].nic.mac1609_4 	DroppedPacketsInMac 	0
scalar RSUExampleScenario.node[60].nic.mac1609_4 	TooLittleTime 	0
scalar RSUExampleScenario.node[60].nic.mac1609_4 	TimesIntoBackoff 	1
scalar RSUExampleScenario.node[60].nic.mac1609_4 	SlotsBackoff 	4
scalar RSUExampleScenario.node[60].nic.mac1609_4 	NumInternalContention 	0
scalar RSUExampleScenario.node[60].nic.mac1609_4 	totalBusyTime 	0.002521
scalar RSUExampleScenario.node[60].veinsmobility 	startTime 	121
scalar RSUExampleScenario.node[60].veinsmobility 	totalTime 	582
scalar RSUExampleScenario.node[60].veinsmobility 	stopTime 	704
scalar RSUExampleScenario.node[60].veinsmobility 	minSpeed 	0
scalar RSUExampleScenario.node[60].veinsmobility 	maxSpeed 	27.718571743033
scalar RSUExampleScenario.node[60].veinsmobility 	totalDistance 	3405.18114634
scalar RSUExampleScenario.node[60].veinsmobility 	totalCO2Emission 	1334.0851870431
scalar RSUExampleScenario.node[35].nic.phy80211p 	busyTime 	4.4790046656299e-06
scalar RSUExampleScenario.node[35].nic.mac1609_4 	ReceivedUnicastPackets 	0
scalar RSUExampleScenario.node[35].nic.mac1609_4 	ReceivedBroadcasts 	18
scalar RSUExampleScenario.node[35].nic.mac1609_4 	SentPackets 	1
scalar RSUExampleScenario.node[35].nic.mac1609_4 	SNIRLostPackets 	6
scalar RSUExampleScenario.node[35].nic.mac1609_4 	RXTXLostPackets 	2
scalar RSUExampleScenario.node[35].nic.mac1609_4 	TotalLostPackets 	8
scalar RSUExampleScenario.node[35].nic.mac1609_4 	DroppedPacketsInMac 	0
scalar RSUExampleScenario.node[35].nic.mac1609_4 	TooLittleTime 	0
scalar RSUExampleScenario.node[35].nic.mac1609_4 	TimesIntoBackoff 	1
scalar RSUExampleScenario.node[35].nic.mac1609_4 	SlotsBackoff 	4
scalar RSUExampleScenario.node[35].nic.mac1609_4 	NumInternalContention 	0
scalar RSUExampleScenario.node[35].nic.mac1609_4 	totalBusyTime 	0.002641
scalar RSUExampleScenario.node[35].veinsmobility 	startTime 	64
scalar RSUExampleScenario.node[35].veinsmobility 	totalTime 	642
scalar RSUExampleScenario.node[35].veinsmobility 	stopTime 	707
scalar RSUExampleScenario.node[35].veinsmobility 	minSpeed 	0
scalar RSUExampleScenario.node[35].veinsmobility 	maxSpeed 	16.657620351464
scalar RSUExampleScenario.node[35].veinsmobility 	totalDistance 	3258.5706871834
scalar RSUExampleScenario.node[35].veinsmobility 	totalCO2Emission 	1213.7433796004
scalar RSUExampleScenario.node[36].nic.phy80211p 	busyTime 	4.8522550544323e-06
scalar RSUExampleScenario.node[36].nic.mac1609_4 	ReceivedUnicastPackets 	0
scalar RSUExampleScenario.node[36].nic.mac1609_4 	ReceivedBroadcasts 	20
scalar RSUExampleScenario.node[36].nic.mac1609_4 	SentPackets 	1
scalar RSUExampleScenario.node[36].nic.mac1609_4 	SNIRLostPackets 	6
scalar RSUExampleScenario.node[36].nic.mac1609_4 	RXTXLostPackets 	0
scalar RSUExampleScenario.node[36].nic.mac1609_4 	TotalLostPackets 	6
scalar RSUExampleScenario.node[36].nic.mac1609_4 	DroppedPacketsInMac 	0
scalar RSUExampleScenario.node[36].nic.mac1609_4 	TooLittleTime 	0
scalar RSUExampleScenario.node[36].nic.mac1609_4 	TimesIntoBackoff 	1
scalar RSUExampleScenario.node[36].nic.mac1609_4 	SlotsBackoff 	5
scalar RSUExampleScenario.node[36].nic.mac1609_4 	NumInternalContention 	0
scalar RSUExampleScenario.node[36].nic.mac1609_4 	totalBusyTime 	0.002641
scalar RSUExampleScenario.node[36].veinsmobility 	startTime 	66
scalar RSUExampleScenario.node[36].veinsmobility 	totalTime 	642
scalar RSUExampleScenario.node[36].veinsmobility 	stopTime 	709
scalar RSUExampleScenario.node[36].veinsmobility 	minSpeed 	0
scalar RSUExampleScenario.node[36].veinsmobility 	maxSpeed 	16.66903800766
scalar RSUExampleScenario.node[36].veinsmobility 	totalDistance 	3255.5386610168
scalar RSUExampleScenario.node[36].veinsmobility 	totalCO2Emission 	1268.9270986723
scalar RSUExampleScenario.node[66].nic.phy80211p 	busyTime 	8.5416666666667e-06
scalar RSUExampleScenario.node[66].nic.mac1609_4 	ReceivedUnicastPackets 	0
scalar RSUExampleScenario.node[66].nic.mac1609_4 	ReceivedBroadcasts 	17
scalar RSUExampleScenario.node[66].nic.mac1609_4 	SentPackets 	1
scalar RSUExampleScenario.node[66].nic.mac1609_4 	SNIRLostPackets 	23
scalar RSUExampleScenario.node[66].nic.mac1609_4 	RXTXLostPackets 	1
scalar RSUExampleScenario.node[66].nic.mac1609_4 	TotalLostPackets 	24
scalar RSUExampleScenario.node[66].nic.mac1609_4 	DroppedPacketsInMac 	0
scalar RSUExampleScenario.node[66].nic.mac1609_4 	TooLittleTime 	0
scalar RSUExampleScenario.node[66].nic.mac1609_4 	TimesIntoBackoff 	1
scalar RSUExampleScenario.node[66].nic.mac1609_4 	SlotsBackoff 	6
scalar RSUExampleScenario.node[66].nic.mac1609_4 	NumInternalContention 	0
scalar RSUExampleScenario.node[66].nic.mac1609_4 	totalBusyTime 	0.003241
scalar RSUExampleScenario.node[66].veinsmobility 	startTime 	135
scalar RSUExampleScenario.node[66].veinsmobility 	totalTime 	575
scalar RSUExampleScenario.node[66].veinsmobility 	stopTime 	711
scalar RSUExampleScenario.node[66].veinsmobility 	minSpeed 	0
scalar RSUExampleScenario.node[66].veinsmobility 	maxSpeed 	27.704816389307
scalar RSUExampleScenario.node[66].veinsmobility 	totalDistance 	3396.2880788427
scalar RSUExampleScenario.node[66].veinsmobility 	totalCO2Emission 	1329.7844129497
scalar RSUExampleScenario.node[31].nic.phy80211p 	busyTime 	5.6534954407295e-06
scalar RSUExampleScenario.node[31].nic.mac1609_4 	ReceivedUnicastPackets 	0
scalar RSUExampleScenario.node[31].nic.mac1609_4 	ReceivedBroadcasts 	16
scalar RSUExampleScenario.node[31].nic.mac1609_4 	SentPackets 	1
scalar RSUExampleScenario.node[31].nic.mac1609_4 	SNIRLostPackets 	15
scalar RSUExampleScenario.node[31].nic.mac1609_4 	RXTXLostPackets 	0
scalar RSUExampleScenario.node[31].nic.mac1609_4 	TotalLostPackets 	15
scalar RSUExampleScenario.node[31].nic.mac1609_4 	DroppedPacketsInMac 	0
scalar RSUExampleScenario.node[31].nic.mac1609_4 	TooLittleTime 	0
scalar RSUExampleScenario.node[31].nic.mac1609_4 	TimesIntoBackoff 	2
scalar RSUExampleScenario.node[31].nic.mac1609_4 	SlotsBackoff 	7
scalar RSUExampleScenario.node[31].nic.mac1609_4 	NumInternalContention 	0
scalar RSUExampleScenario.node[31].nic.mac1609_4 	totalBusyTime 	0.002919732205
scalar RSUExampleScenario.node[31].veinsmobility 	startTime 	56
scalar RSUExampleScenario.node[31].veinsmobility 	totalTime 	657
scalar RSUExampleScenario.node[31].veinsmobility 	stopTime 	714
scalar RSUExampleScenario.node[31].veinsmobility 	minSpeed 	0
scalar RSUExampleScenario.node[31].veinsmobility 	maxSpeed 	16.668071180964
scalar RSUExampleScenario.node[31].veinsmobility 	totalDistance 	3264.6558612352
scalar RSUExampleScenario.node[31].veinsmobility 	totalCO2Emission 	1198.5561539336
scalar RSUExampleScenario.node[34].nic.phy80211p 	busyTime 	4.7706422018349e-06
scalar RSUExampleScenario.node[34].nic.mac1609_4 	ReceivedUnicastPackets 	0
scalar RSUExampleScenario.node[34].nic.mac1609_4 	ReceivedBroadcasts 	19
scalar RSUExampleScenario.node[34].nic.mac1609_4 	SentPackets 	1
scalar RSUExampleScenario.node[34].nic.mac1609_4 	SNIRLostPackets 	7
scalar RSUExampleScenario.node[34].nic.mac1609_4 	RXTXLostPackets 	1
scalar RSUExampleScenario.node[34].nic.mac1609_4 	TotalLostPackets 	8
scalar RSUExampleScenario.node[34].nic.mac1609_4 	DroppedPacketsInMac 	0
scalar RSUExampleScenario.node[34].nic.mac1609_4 	TooLittleTime 	0
scalar RSUExampleScenario.node[34].nic.mac1609_4 	TimesIntoBackoff 	1
scalar RSUExampleScenario.node[34].nic.mac1609_4 	SlotsBackoff 	5
scalar RSUExampleScenario.node[34].nic.mac1609_4 	NumInternalContention 	0
scalar RSUExampleScenario.node[34].nic.mac1609_4 	totalBusyTime 	0.002761033447
scalar RSUExampleScenario.node[34].veinsmobility 	startTime 	62
scalar RSUExampleScenario.node[34].veinsmobility 	totalTime 	653
scalar RSUExampleScenario.node[34].veinsmobility 	stopTime 	716
scalar RSUExampleScenario.node[34].veinsmobility 	minSpeed 	0
scalar RSUExampleScenario.node[34].veinsmobility 	maxSpeed 	16.65616032497
scalar RSUExampleScenario.node[34].veinsmobility 	totalDistance 	3255.0998291579
scalar RSUExampleScenario.node[34].veinsmobility 	totalCO2Emission 	1197.8645502213
scalar RSUExampleScenario.node[68].nic.phy80211p 	busyTime 	9.1349480968858e-06
scalar RSUExampleScenario.node[68].nic.mac1609_4 	ReceivedUnicastPackets 	0
scalar RSUExampleScenario.node[68].nic.mac1609_4 	ReceivedBroadcasts 	19
scalar RSUExampleScenario.node[68].nic.mac1609_4 	SentPackets 	1
scalar RSUExampleScenario.node[68].nic.mac1609_4 	SNIRLostPackets 	25
scalar RSUExampleScenario.node[68].nic.mac1609_4 	RXTXLostPackets 	0
scalar RSUExampleScenario.node[68].nic.mac1609_4 	TotalLostPackets 	25
scalar RSUExampleScenario.node[68].nic.mac1609_4 	DroppedPacketsInMac 	0
scalar RSUExampleScenario.node[68].nic.mac1609_4 	TooLittleTime 	0
scalar RSUExampleScenario.node[68].nic.mac1609_4 	TimesIntoBackoff 	1
scalar RSUExampleScenario.node[68].nic.mac1609_4 	SlotsBackoff 	3
scalar RSUExampleScenario.node[68].nic.mac1609_4 	NumInternalContention 	0
scalar RSUExampleScenario.node[68].nic.mac1609_4 	totalBusyTime 	0.003601
scalar RSUExampleScenario.node[68].veinsmobility 	startTime 	140
scalar RSUExampleScenario.node[68].veinsmobility 	totalTime 	577
scalar RSUExampleScenario.node[68].veinsmobility 	stopTime 	718
scalar RSUExampleScenario.node[68].veinsmobility 	minSpeed 	0
scalar RSUExampleScenario.node[68].veinsmobility 	maxSpeed 	27.768811891116
scalar RSUExampleScenario.node[68].veinsmobility 	totalDistance 	3400.9030183135
scalar RSUExampleScenario.node[68].veinsmobility 	totalCO2Emission 	1366.96851744
scalar RSUExampleScenario.node[58].nic.phy80211p 	busyTime 	4.1721854304636e-06
scalar RSUExampleScenario.node[58].nic.mac1609_4 	ReceivedUnicastPackets 	0
scalar RSUExampleScenario.node[58].nic.mac1609_4 	ReceivedBroadcasts 	15
scalar RSUExampleScenario.node[58].nic.mac1609_4 	SentPackets 	1
scalar RSUExampleScenario.node[58].nic.mac1609_4 	SNIRLostPackets 	6
scalar RSUExampleScenario.node[58].nic.mac1609_4 	RXTXLostPackets 	0
scalar RSUExampleScenario.node[58].nic.mac1609_4 	TotalLostPackets 	6
scalar RSUExampleScenario.node[58].nic.mac1609_4 	DroppedPacketsInMac 	0
scalar RSUExampleScenario.node[58].nic.mac1609_4 	TooLittleTime 	0
scalar RSUExampleScenario.node[58].nic.mac1609_4 	TimesIntoBackoff 	1
scalar RSUExampleScenario.node[58].nic.mac1609_4 	SlotsBackoff 	2
scalar RSUExampleScenario.node[58].nic.mac1609_4 	NumInternalContention 	0
scalar RSUExampleScenario.node[58].nic.mac1609_4 	totalBusyTime 	0.002281196769
scalar RSUExampleScenario.node[58].veinsmobility 	startTime 	117
scalar RSUExampleScenario.node[58].veinsmobility 	totalTime 	603
scalar RSUExampleScenario.node[58].veinsmobility 	stopTime 	721
scalar RSUExampleScenario.node[58].veinsmobility 	minSpeed 	0
scalar RSUExampleScenario.node[58].veinsmobility 	maxSpeed 	27.716177153243
scalar RSUExampleScenario.node[58].veinsmobility 	totalDistance 	3410.9043079276
scalar RSUExampleScenario.node[58].veinsmobility 	totalCO2Emission 	1357.2523307778
scalar RSUExampleScenario.node[32].nic.phy80211p 	busyTime 	4.8721804511278e-06
scalar RSUExampleScenario.node[32].nic.mac1609_4 	ReceivedUnicastPackets 	0
scalar RSUExampleScenario.node[32].nic.mac1609_4 	ReceivedBroadcasts 	18
scalar RSUExampleScenario.node[32].nic.mac1609_4 	SentPackets 	1
scalar RSUExampleScenario.node[32].nic.mac1609_4 	SNIRLostPackets 	9
scalar RSUExampleScenario.node[32].nic.mac1609_4 	RXTXLostPackets 	0
scalar RSUExampleScenario.node[32].nic.mac1609_4 	TotalLostPackets 	9
scalar RSUExampleScenario.node[32].nic.mac1609_4 	DroppedPacketsInMac 	0
scalar RSUExampleScenario.node[32].nic.mac1609_4 	TooLittleTime 	0
scalar RSUExampleScenario.node[32].nic.mac1609_4 	TimesIntoBackoff 	1
scalar RSUExampleScenario.node[32].nic.mac1609_4 	SlotsBackoff 	4
scalar RSUExampleScenario.node[32].nic.mac1609_4 	NumInternalContention 	0
scalar RSUExampleScenario.node[32].nic.mac1609_4 	totalBusyTime 	0.002761155753
scalar RSUExampleScenario.node[32].veinsmobility 	startTime 	58
scalar RSUExampleScenario.node[32].veinsmobility 	totalTime 	664
scalar RSUExampleScenario.node[32].veinsmobility 	stopTime 	723
scalar RSUExampleScenario.node[32].veinsmobility 	minSpeed 	0
scalar RSUExampleScenario.node[32].veinsmobility 	maxSpeed 	16.452810256971
scalar RSUExampleScenario.node[32].veinsmobility 	totalDistance 	3255.2108220344
scalar RSUExampleScenario.node[32].veinsmobility 	totalCO2Emission 	1219.5134343928
scalar RSUExampleScenario.node[73].nic.phy80211p 	busyTime 	7.5767918088737e-06
scalar RSUExampleScenario.node[73].nic.mac1609_4 	ReceivedUnicastPackets 	0
scalar RSUExampleScenario.node[73].nic.mac1609_4 	ReceivedBroadcasts 	22
scalar RSUExampleScenario.node[73].nic.mac1609_4 	SentPackets 	1
scalar RSUExampleScenario.node[73].nic.mac1609_4 	SNIRLostPackets 	15
scalar RSUExampleScenario.node[73].nic.mac1609_4 	RXTXLostPackets 	0
scalar RSUExampleScenario.node[73].nic.mac1609_4 	TotalLostPackets 	15
scalar RSUExampleScenario.node[73].nic.mac1609_4 	DroppedPacketsInMac 	0
scalar RSUExampleScenario.node[73].nic.mac1609_4 	TooLittleTime 	0
scalar RSUExampleScenario.node[73].nic.mac1609_4 	TimesIntoBackoff 	2
scalar RSUExampleScenario.node[73].nic.mac1609_4 	SlotsBackoff 	7
scalar RSUExampleScenario.node[73].nic.mac1609_4 	NumInternalContention 	0
scalar RSUExampleScenario.node[73].nic.mac1609_4 	totalBusyTime 	0.003481
scalar RSUExampleScenario.node[73].veinsmobility 	startTime 	151
scalar RSUExampleScenario.node[73].veinsmobility 	totalTime 	585
scalar RSUExampleScenario.node[73].veinsmobility 	stopTime 	737
scalar RSUExampleScenario.node[73].veinsmobility 	minSpeed 	0
scalar RSUExampleScenario.node[73].veinsmobility 	maxSpeed 	27.769301961996
scalar RSUExampleScenario.node[73].veinsmobility 	totalDistance 	3403.1017612826
scalar RSUExampleScenario.node[73].veinsmobility 	totalCO2Emission 	1367.9972570621
scalar RSUExampleScenario.node[67].nic.phy80211p 	busyTime 	8.1863560732113e-06
scalar RSUExampleScenario.node[67].nic.mac1609_4 	ReceivedUnicastPackets 	0
scalar RSUExampleScenario.node[67].nic.mac1609_4 	ReceivedBroadcasts 	16
scalar RSUExampleScenario.node[67].nic.mac1609_4 	SentPackets 	1
scalar RSUExampleScenario.node[67].nic.mac1609_4 	SNIRLostPackets 	25
scalar RSUExampleScenario.node[67].nic.mac1609_4 	RXTXLostPackets 	0
scalar RSUExampleScenario.node[67].nic.mac1609_4 	TotalLostPackets 	25
scalar RSUExampleScenario.node[67].nic.mac1609_4 	DroppedPacketsInMac 	0
scalar RSUExampleScenario.node[67].nic.mac1609_4 	TooLittleTime 	0
scalar RSUExampleScenario.node[67].nic.mac1609_4 	TimesIntoBackoff 	1
scalar RSUExampleScenario.node[67].nic.mac1609_4 	SlotsBackoff 	2
scalar RSUExampleScenario.node[67].nic.mac1609_4 	NumInternalContention 	0
scalar RSUExampleScenario.node[67].nic.mac1609_4 	totalBusyTime 	0.003241
scalar RSUExampleScenario.node[67].veinsmobility 	startTime 	138
scalar RSUExampleScenario.node[67].veinsmobility 	totalTime 	600
scalar RSUExampleScenario.node[67].veinsmobility 	stopTime 	739
scalar RSUExampleScenario.node[67].veinsmobility 	minSpeed 	0
scalar RSUExampleScenario.node[67].veinsmobility 	maxSpeed 	27.756599765932
scalar RSUExampleScenario.node[67].veinsmobility 	totalDistance 	3394.8882439422
scalar RSUExampleScenario.node[67].veinsmobility 	totalCO2Emission 	1439.575069586
scalar RSUExampleScenario.node[65].nic.phy80211p 	busyTime 	7.2906403940887e-06
scalar RSUExampleScenario.node[65].nic.mac1609_4 	ReceivedUnicastPackets 	0
scalar RSUExampleScenario.node[65].nic.mac1609_4 	ReceivedBroadcasts 	19
scalar RSUExampleScenario.node[65].nic.mac1609_4 	SentPackets 	1
scalar RSUExampleScenario.node[65].nic.mac1609_4 	SNIRLostPackets 	18
scalar RSUExampleScenario.node[65].nic.mac1609_4 	RXTXLostPackets 	2
scalar RSUExampleScenario.node[65].nic.mac1609_4 	TotalLostPackets 	20
scalar RSUExampleScenario.node[65].nic.mac1609_4 	DroppedPacketsInMac 	0
scalar RSUExampleScenario.node[65].nic.mac1609_4 	TooLittleTime 	0
scalar RSUExampleScenario.node[65].nic.mac1609_4 	TimesIntoBackoff 	2
scalar RSUExampleScenario.node[65].nic.mac1609_4 	SlotsBackoff 	8
scalar RSUExampleScenario.node[65].nic.mac1609_4 	NumInternalContention 	0
scalar RSUExampleScenario.node[65].nic.mac1609_4 	totalBusyTime 	0.003241
scalar RSUExampleScenario.node[65].veinsmobility 	startTime 	133
scalar RSUExampleScenario.node[65].veinsmobility 	totalTime 	608
scalar RSUExampleScenario.node[65].veinsmobility 	stopTime 	742
scalar RSUExampleScenario.node[65].veinsmobility 	minSpeed 	0
scalar RSUExampleScenario.node[65].veinsmobility 	maxSpeed 	27.765847557439
scalar RSUExampleScenario.node[65].veinsmobility 	totalDistance 	3407.0906570773
scalar RSUExampleScenario.node[65].veinsmobility 	totalCO2Emission 	1455.3460811532
scalar RSUExampleScenario.node[40].nic.phy80211p 	busyTime 	4.4776119402985e-06
scalar RSUExampleScenario.node[40].nic.mac1609_4 	ReceivedUnicastPackets 	0
scalar RSUExampleScenario.node[40].nic.mac1609_4 	ReceivedBroadcasts 	19
scalar RSUExampleScenario.node[40].nic.mac1609_4 	SentPackets 	1
scalar RSUExampleScenario.node[40].nic.mac1609_4 	SNIRLostPackets 	6
scalar RSUExampleScenario.node[40].nic.mac1609_4 	RXTXLostPackets 	1
scalar RSUExampleScenario.node[40].nic.mac1609_4 	TotalLostPackets 	7
scalar RSUExampleScenario.node[40].nic.mac1609_4 	DroppedPacketsInMac 	0
scalar RSUExampleScenario.node[40].nic.mac1609_4 	TooLittleTime 	0
scalar RSUExampleScenario.node[40].nic.mac1609_4 	TimesIntoBackoff 	1
scalar RSUExampleScenario.node[40].nic.mac1609_4 	SlotsBackoff 	4
scalar RSUExampleScenario.node[40].nic.mac1609_4 	NumInternalContention 	0
scalar RSUExampleScenario.node[40].nic.mac1609_4 	totalBusyTime 	0.002641
scalar RSUExampleScenario.node[40].veinsmobility 	startTime 	74
scalar RSUExampleScenario.node[40].veinsmobility 	totalTime 	669
scalar RSUExampleScenario.node[40].veinsmobility 	stopTime 	744
scalar RSUExampleScenario.node[40].veinsmobility 	minSpeed 	0
scalar RSUExampleScenario.node[40].veinsmobility 	maxSpeed 	16.625686311508
scalar RSUExampleScenario.node[40].veinsmobility 	totalDistance 	3258.2484681773
scalar RSUExampleScenario.node[40].veinsmobility 	totalCO2Emission 	1241.7706114547
scalar RSUExampleScenario.node[79].nic.phy80211p 	busyTime 	8.881239242685e-06
scalar RSUExampleScenario.node[79].nic.mac1609_4 	ReceivedUnicastPackets 	0
scalar RSUExampleScenario.node[79].nic.mac1609_4 	ReceivedBroadcasts 	32
scalar RSUExampleScenario.node[79].nic.mac1609_4 	SentPackets 	1
scalar RSUExampleScenario.node[79].nic.mac1609_4 	SNIRLostPackets 	11
scalar RSUExampleScenario.node[79].nic.mac1609_4 	RXTXLostPackets 	2
scalar RSUExampleScenario.node[79].nic.mac1609_4 	TotalLostPackets 	13
scalar RSUExampleScenario.node[79].nic.mac1609_4 	DroppedPacketsInMac 	0
scalar RSUExampleScenario.node[79].nic.mac1609_4 	TooLittleTime 	0
scalar RSUExampleScenario.node[79].nic.mac1609_4 	TimesIntoBackoff 	1
scalar RSUExampleScenario.node[79].nic.mac1609_4 	SlotsBackoff 	5
scalar RSUExampleScenario.node[79].nic.mac1609_4 	NumInternalContention 	0
scalar RSUExampleScenario.node[79].nic.mac1609_4 	totalBusyTime 	0.004561
scalar RSUExampleScenario.node[79].veinsmobility 	startTime 	165
scalar RSUExampleScenario.node[79].veinsmobility 	totalTime 	580
scalar RSUExampleScenario.node[79].veinsmobility 	stopTime 	746
scalar RSUExampleScenario.node[79].veinsmobility 	minSpeed 	0
scalar RSUExampleScenario.node[79].veinsmobility 	maxSpeed 	27.779351554438
scalar RSUExampleScenario.node[79].veinsmobility 	totalDistance 	3397.7605648573
scalar RSUExampleScenario.node[79].veinsmobility 	totalCO2Emission 	1407.1321662804
scalar RSUExampleScenario.node[37].nic.phy80211p 	busyTime 	4.3795620437956e-06
scalar RSUExampleScenario.node[37].nic.mac1609_4 	ReceivedUnicastPackets 	0
scalar RSUExampleScenario.node[37].nic.mac1609_4 	ReceivedBroadcasts 	19
scalar RSUExampleScenario.node[37].nic.mac1609_4 	SentPackets 	1
scalar RSUExampleScenario.node[37].nic.mac1609_4 	SNIRLostPackets 	6
scalar RSUExampleScenario.node[37].nic.mac1609_4 	RXTXLostPackets 	1
scalar RSUExampleScenario.node[37].nic.mac1609_4 	TotalLostPackets 	7
scalar RSUExampleScenario.node[37].nic.mac1609_4 	DroppedPacketsInMac 	0
scalar RSUExampleScenario.node[37].nic.mac1609_4 	TooLittleTime 	0
scalar RSUExampleScenario.node[37].nic.mac1609_4 	TimesIntoBackoff 	2
scalar RSUExampleScenario.node[37].nic.mac1609_4 	SlotsBackoff 	8
scalar RSUExampleScenario.node[37].nic.mac1609_4 	NumInternalContention 	0
scalar RSUExampleScenario.node[37].nic.mac1609_4 	totalBusyTime 	0.002641159292
scalar RSUExampleScenario.node[37].veinsmobility 	startTime 	68
scalar RSUExampleScenario.node[37].veinsmobility 	totalTime 	684
scalar RSUExampleScenario.node[37].veinsmobility 	stopTime 	753
scalar RSUExampleScenario.node[37].veinsmobility 	minSpeed 	0
scalar RSUExampleScenario.node[37].veinsmobility 	maxSpeed 	16.665396585083
scalar RSUExampleScenario.node[37].veinsmobility 	totalDistance 	3250.9460452851
scalar RSUExampleScenario.node[37].veinsmobility 	totalCO2Emission 	1243.7142011579
scalar RSUExampleScenario.node[43].nic.phy80211p 	busyTime 	4.9630723781388e-06
scalar RSUExampleScenario.node[43].nic.mac1609_4 	ReceivedUnicastPackets 	0
scalar RSUExampleScenario.node[43].nic.mac1609_4 	ReceivedBroadcasts 	19
scalar RSUExampleScenario.node[43].nic.mac1609_4 	SentPackets 	1
scalar RSUExampleScenario.node[43].nic.mac1609_4 	SNIRLostPackets 	9
scalar RSUExampleScenario.node[43].nic.mac1609_4 	RXTXLostPackets 	0
scalar RSUExampleScenario.node[43].nic.mac1609_4 	TotalLostPackets 	9
scalar RSUExampleScenario.node[43].nic.mac1609_4 	DroppedPacketsInMac 	0
scalar RSUExampleScenario.node[43].nic.mac1609_4 	TooLittleTime 	0
scalar RSUExampleScenario.node[43].nic.mac1609_4 	TimesIntoBackoff 	2
scalar RSUExampleScenario.node[43].nic.mac1609_4 	SlotsBackoff 	9
scalar RSUExampleScenario.node[43].nic.mac1609_4 	NumInternalContention 	0
scalar RSUExampleScenario.node[43].nic.mac1609_4 	totalBusyTime 	0.002881055993
scalar RSUExampleScenario.node[43].veinsmobility 	startTime 	80
scalar RSUExampleScenario.node[43].veinsmobility 	totalTime 	676
scalar RSUExampleScenario.node[43].veinsmobility 	stopTime 	757
scalar RSUExampleScenario.node[43].veinsmobility 	minSpeed 	0
scalar RSUExampleScenario.node[43].veinsmobility 	maxSpeed 	16.665024575554
scalar RSUExampleScenario.node[43].veinsmobility 	totalDistance 	3252.6175803761
scalar RSUExampleScenario.node[43].veinsmobility 	totalCO2Emission 	1192.0822796055
scalar RSUExampleScenario.node[94].nic.phy80211p 	busyTime 	6.1921708185053e-06
scalar RSUExampleScenario.node[94].nic.mac1609_4 	ReceivedUnicastPackets 	0
scalar RSUExampleScenario.node[94].nic.mac1609_4 	ReceivedBroadcasts 	23
scalar RSUExampleScenario.node[94].nic.mac1609_4 	SentPackets 	1
scalar RSUExampleScenario.node[94].nic.mac1609_4 	SNIRLostPackets 	6
scalar RSUExampleScenario.node[94].nic.mac1609_4 	RXTXLostPackets 	0
scalar RSUExampleScenario.node[94].nic.mac1609_4 	TotalLostPackets 	6
scalar RSUExampleScenario.node[94].nic.mac1609_4 	DroppedPacketsInMac 	0
scalar RSUExampleScenario.node[94].nic.mac1609_4 	TooLittleTime 	0
scalar RSUExampleScenario.node[94].nic.mac1609_4 	TimesIntoBackoff 	1
scalar RSUExampleScenario.node[94].nic.mac1609_4 	SlotsBackoff 	3
scalar RSUExampleScenario.node[94].nic.mac1609_4 	NumInternalContention 	0
scalar RSUExampleScenario.node[94].nic.mac1609_4 	totalBusyTime 	0.003241
scalar RSUExampleScenario.node[94].veinsmobility 	startTime 	206
scalar RSUExampleScenario.node[94].veinsmobility 	totalTime 	561
scalar RSUExampleScenario.node[94].veinsmobility 	stopTime 	768
scalar RSUExampleScenario.node[94].veinsmobility 	minSpeed 	0
scalar RSUExampleScenario.node[94].veinsmobility 	maxSpeed 	27.774022379561
scalar RSUExampleScenario.node[94].veinsmobility 	totalDistance 	3390.8184283133
scalar RSUExampleScenario.node[94].veinsmobility 	totalCO2Emission 	1080.2510928502
scalar RSUExampleScenario.node[45].nic.phy80211p 	busyTime 	6.2973760932945e-06
scalar RSUExampleScenario.node[45].nic.mac1609_4 	ReceivedUnicastPackets 	0
scalar RSUExampleScenario.node[45].nic.mac1609_4 	ReceivedBroadcasts 	25
scalar RSUExampleScenario.node[45].nic.mac1609_4 	SentPackets 	1
scalar RSUExampleScenario.node[45].nic.mac1609_4 	SNIRLostPackets 	11
scalar RSUExampleScenario.node[45].nic.mac1609_4 	RXTXLostPackets 	0
scalar RSUExampleScenario.node[45].nic.mac1609_4 	TotalLostPackets 	11
scalar RSUExampleScenario.node[45].nic.mac1609_4 	DroppedPacketsInMac 	0
scalar RSUExampleScenario.node[45].nic.mac1609_4 	TooLittleTime 	0
scalar RSUExampleScenario.node[45].nic.mac1609_4 	TimesIntoBackoff 	1
scalar RSUExampleScenario.node[45].nic.mac1609_4 	SlotsBackoff 	0
scalar RSUExampleScenario.node[45].nic.mac1609_4 	NumInternalContention 	0
scalar RSUExampleScenario.node[45].nic.mac1609_4 	totalBusyTime 	0.003721
scalar RSUExampleScenario.node[45].veinsmobility 	startTime 	88
scalar RSUExampleScenario.node[45].veinsmobility 	totalTime 	685
scalar RSUExampleScenario.node[45].veinsmobility 	stopTime 	774
scalar RSUExampleScenario.node[45].veinsmobility 	minSpeed 	0
scalar RSUExampleScenario.node[45].veinsmobility 	maxSpeed 	16.646753226292
scalar RSUExampleScenario.node[45].veinsmobility 	totalDistance 	3249.8328600686
scalar RSUExampleScenario.node[45].veinsmobility 	totalCO2Emission 	1094.1174386739
scalar RSUExampleScenario.node[50].nic.phy80211p 	busyTime 	9.0132547864507e-06
scalar RSUExampleScenario.node[50].nic.mac1609_4 	ReceivedUnicastPackets 	0
scalar RSUExampleScenario.node[50].nic.mac1609_4 	ReceivedBroadcasts 	34
[...]
scalar RSUExampleScenario.node[382].veinsmobility 	minSpeed 	0
scalar RSUExampleScenario.node[382].veinsmobility 	maxSpeed 	27.59850781973
scalar RSUExampleScenario.node[382].veinsmobility 	totalDistance 	3392.0849533677
scalar RSUExampleScenario.node[382].veinsmobility 	totalCO2Emission 	1242.0089241116
scalar RSUExampleScenario.node[383].nic.phy80211p 	busyTime 	3.6305732484076e-06
scalar RSUExampleScenario.node[383].nic.mac1609_4 	ReceivedUnicastPackets 	0
scalar RSUExampleScenario.node[383].nic.mac1609_4 	ReceivedBroadcasts 	19
scalar RSUExampleScenario.node[383].nic.mac1609_4 	SentPackets 	1
scalar RSUExampleScenario.node[383].nic.mac1609_4 	SNIRLostPackets 	0
scalar RSUExampleScenario.node[383].nic.mac1609_4 	RXTXLostPackets 	0
scalar RSUExampleScenario.node[383].nic.mac1609_4 	TotalLostPackets 	0
scalar RSUExampleScenario.node[383].nic.mac1609_4 	DroppedPacketsInMac 	0
scalar RSUExampleScenario.node[383].nic.mac1609_4 	TooLittleTime 	0
scalar RSUExampleScenario.node[383].nic.mac1609_4 	TimesIntoBackoff 	1
scalar RSUExampleScenario.node[383].nic.mac1609_4 	SlotsBackoff 	2
scalar RSUExampleScenario.node[383].nic.mac1609_4 	NumInternalContention 	0
scalar RSUExampleScenario.node[383].nic.mac1609_4 	totalBusyTime 	0.002401
scalar RSUExampleScenario.node[383].veinsmobility 	startTime 	1665
scalar RSUExampleScenario.node[383].veinsmobility 	totalTime 	627
scalar RSUExampleScenario.node[383].veinsmobility 	stopTime 	2293
scalar RSUExampleScenario.node[383].veinsmobility 	minSpeed 	0
scalar RSUExampleScenario.node[383].veinsmobility 	maxSpeed 	27.774485818433
scalar RSUExampleScenario.node[383].veinsmobility 	totalDistance 	3394.1032815633
scalar RSUExampleScenario.node[383].veinsmobility 	totalCO2Emission 	1205.1932152045
scalar RSUExampleScenario.node[384].nic.phy80211p 	busyTime 	3.6133122028526e-06
scalar RSUExampleScenario.node[384].nic.mac1609_4 	ReceivedUnicastPackets 	0
scalar RSUExampleScenario.node[384].nic.mac1609_4 	ReceivedBroadcasts 	19
scalar RSUExampleScenario.node[384].nic.mac1609_4 	SentPackets 	1
scalar RSUExampleScenario.node[384].nic.mac1609_4 	SNIRLostPackets 	0
scalar RSUExampleScenario.node[384].nic.mac1609_4 	RXTXLostPackets 	0
scalar RSUExampleScenario.node[384].nic.mac1609_4 	TotalLostPackets 	0
scalar RSUExampleScenario.node[384].nic.mac1609_4 	DroppedPacketsInMac 	0
scalar RSUExampleScenario.node[384].nic.mac1609_4 	TooLittleTime 	0
scalar RSUExampleScenario.node[384].nic.mac1609_4 	TimesIntoBackoff 	1
scalar RSUExampleScenario.node[384].nic.mac1609_4 	SlotsBackoff 	6
scalar RSUExampleScenario.node[384].nic.mac1609_4 	NumInternalContention 	0
scalar RSUExampleScenario.node[384].nic.mac1609_4 	totalBusyTime 	0.002401
scalar RSUExampleScenario.node[384].veinsmobility 	startTime 	1667
scalar RSUExampleScenario.node[384].veinsmobility 	totalTime 	630
scalar RSUExampleScenario.node[384].veinsmobility 	stopTime 	2298
scalar RSUExampleScenario.node[384].veinsmobility 	minSpeed 	0
scalar RSUExampleScenario.node[384].veinsmobility 	maxSpeed 	27.663788098677
scalar RSUExampleScenario.node[384].veinsmobility 	totalDistance 	3395.3142543542
scalar RSUExampleScenario.node[384].veinsmobility 	totalCO2Emission 	1220.2017948891
scalar RSUExampleScenario.node[387].nic.phy80211p 	busyTime 	3.6305732484076e-06
scalar RSUExampleScenario.node[387].nic.mac1609_4 	ReceivedUnicastPackets 	0
scalar RSUExampleScenario.node[387].nic.mac1609_4 	ReceivedBroadcasts 	19
scalar RSUExampleScenario.node[387].nic.mac1609_4 	SentPackets 	1
scalar RSUExampleScenario.node[387].nic.mac1609_4 	SNIRLostPackets 	0
scalar RSUExampleScenario.node[387].nic.mac1609_4 	RXTXLostPackets 	0
scalar RSUExampleScenario.node[387].nic.mac1609_4 	TotalLostPackets 	0
scalar RSUExampleScenario.node[387].nic.mac1609_4 	DroppedPacketsInMac 	0
scalar RSUExampleScenario.node[387].nic.mac1609_4 	TooLittleTime 	0
scalar RSUExampleScenario.node[387].nic.mac1609_4 	TimesIntoBackoff 	1
scalar RSUExampleScenario.node[387].nic.mac1609_4 	SlotsBackoff 	2
scalar RSUExampleScenario.node[387].nic.mac1609_4 	NumInternalContention 	0
scalar RSUExampleScenario.node[387].nic.mac1609_4 	totalBusyTime 	0.002401
scalar RSUExampleScenario.node[387].veinsmobility 	startTime 	1673
scalar RSUExampleScenario.node[387].veinsmobility 	totalTime 	627
scalar RSUExampleScenario.node[387].veinsmobility 	stopTime 	2301
scalar RSUExampleScenario.node[387].veinsmobility 	minSpeed 	0
scalar RSUExampleScenario.node[387].veinsmobility 	maxSpeed 	27.775302739937
scalar RSUExampleScenario.node[387].veinsmobility 	totalDistance 	3399.0081533367
scalar RSUExampleScenario.node[387].veinsmobility 	totalCO2Emission 	1174.8572922753
scalar RSUExampleScenario.node[385].nic.phy80211p 	busyTime 	3.5905511811024e-06
scalar RSUExampleScenario.node[385].nic.mac1609_4 	ReceivedUnicastPackets 	0
scalar RSUExampleScenario.node[385].nic.mac1609_4 	ReceivedBroadcasts 	19
scalar RSUExampleScenario.node[385].nic.mac1609_4 	SentPackets 	1
scalar RSUExampleScenario.node[385].nic.mac1609_4 	SNIRLostPackets 	0
scalar RSUExampleScenario.node[385].nic.mac1609_4 	RXTXLostPackets 	0
scalar RSUExampleScenario.node[385].nic.mac1609_4 	TotalLostPackets 	0
scalar RSUExampleScenario.node[385].nic.mac1609_4 	DroppedPacketsInMac 	0
scalar RSUExampleScenario.node[385].nic.mac1609_4 	TooLittleTime 	0
scalar RSUExampleScenario.node[385].nic.mac1609_4 	TimesIntoBackoff 	1
scalar RSUExampleScenario.node[385].nic.mac1609_4 	SlotsBackoff 	5
scalar RSUExampleScenario.node[385].nic.mac1609_4 	NumInternalContention 	0
scalar RSUExampleScenario.node[385].nic.mac1609_4 	totalBusyTime 	0.002401
scalar RSUExampleScenario.node[385].veinsmobility 	startTime 	1669
scalar RSUExampleScenario.node[385].veinsmobility 	totalTime 	634
scalar RSUExampleScenario.node[385].veinsmobility 	stopTime 	2304
scalar RSUExampleScenario.node[385].veinsmobility 	minSpeed 	0
scalar RSUExampleScenario.node[385].veinsmobility 	maxSpeed 	25.454600559874
scalar RSUExampleScenario.node[385].veinsmobility 	totalDistance 	3392.7032038763
scalar RSUExampleScenario.node[385].veinsmobility 	totalCO2Emission 	1199.6481746436
scalar RSUExampleScenario.node[368].nic.phy80211p 	busyTime 	6.5973254086181e-06
scalar RSUExampleScenario.node[368].nic.mac1609_4 	ReceivedUnicastPackets 	0
scalar RSUExampleScenario.node[368].nic.mac1609_4 	ReceivedBroadcasts 	35
scalar RSUExampleScenario.node[368].nic.mac1609_4 	SentPackets 	1
scalar RSUExampleScenario.node[368].nic.mac1609_4 	SNIRLostPackets 	2
scalar RSUExampleScenario.node[368].nic.mac1609_4 	RXTXLostPackets 	1
scalar RSUExampleScenario.node[368].nic.mac1609_4 	TotalLostPackets 	3
scalar RSUExampleScenario.node[368].nic.mac1609_4 	DroppedPacketsInMac 	0
scalar RSUExampleScenario.node[368].nic.mac1609_4 	TooLittleTime 	0
scalar RSUExampleScenario.node[368].nic.mac1609_4 	TimesIntoBackoff 	1
scalar RSUExampleScenario.node[368].nic.mac1609_4 	SlotsBackoff 	4
scalar RSUExampleScenario.node[368].nic.mac1609_4 	NumInternalContention 	0
scalar RSUExampleScenario.node[368].nic.mac1609_4 	totalBusyTime 	0.004441
scalar RSUExampleScenario.node[368].veinsmobility 	startTime 	1634
scalar RSUExampleScenario.node[368].veinsmobility 	totalTime 	672
scalar RSUExampleScenario.node[368].veinsmobility 	stopTime 	2307
scalar RSUExampleScenario.node[368].veinsmobility 	minSpeed 	0
scalar RSUExampleScenario.node[368].veinsmobility 	maxSpeed 	16.668919401675
scalar RSUExampleScenario.node[368].veinsmobility 	totalDistance 	3645.7786924481
scalar RSUExampleScenario.node[368].veinsmobility 	totalCO2Emission 	1195.6452538572
scalar RSUExampleScenario.node[386].nic.phy80211p 	busyTime 	3.5680751173709e-06
scalar RSUExampleScenario.node[386].nic.mac1609_4 	ReceivedUnicastPackets 	0
scalar RSUExampleScenario.node[386].nic.mac1609_4 	ReceivedBroadcasts 	19
scalar RSUExampleScenario.node[386].nic.mac1609_4 	SentPackets 	1
scalar RSUExampleScenario.node[386].nic.mac1609_4 	SNIRLostPackets 	0
scalar RSUExampleScenario.node[386].nic.mac1609_4 	RXTXLostPackets 	0
scalar RSUExampleScenario.node[386].nic.mac1609_4 	TotalLostPackets 	0
scalar RSUExampleScenario.node[386].nic.mac1609_4 	DroppedPacketsInMac 	0
scalar RSUExampleScenario.node[386].nic.mac1609_4 	TooLittleTime 	0
scalar RSUExampleScenario.node[386].nic.mac1609_4 	TimesIntoBackoff 	1
scalar RSUExampleScenario.node[386].nic.mac1609_4 	SlotsBackoff 	4
scalar RSUExampleScenario.node[386].nic.mac1609_4 	NumInternalContention 	0
scalar RSUExampleScenario.node[386].nic.mac1609_4 	totalBusyTime 	0.002401
scalar RSUExampleScenario.node[386].veinsmobility 	startTime 	1671
scalar RSUExampleScenario.node[386].veinsmobility 	totalTime 	638
scalar RSUExampleScenario.node[386].veinsmobility 	stopTime 	2310
scalar RSUExampleScenario.node[386].veinsmobility 	minSpeed 	0
scalar RSUExampleScenario.node[386].veinsmobility 	maxSpeed 	26.111132538537
scalar RSUExampleScenario.node[386].veinsmobility 	totalDistance 	3396.1877474077
scalar RSUExampleScenario.node[386].veinsmobility 	totalCO2Emission 	1233.4257432527
scalar RSUExampleScenario.node[369].nic.phy80211p 	busyTime 	6.7256637168142e-06
scalar RSUExampleScenario.node[369].nic.mac1609_4 	ReceivedUnicastPackets 	0
scalar RSUExampleScenario.node[369].nic.mac1609_4 	ReceivedBroadcasts 	35
scalar RSUExampleScenario.node[369].nic.mac1609_4 	SentPackets 	1
scalar RSUExampleScenario.node[369].nic.mac1609_4 	SNIRLostPackets 	3
scalar RSUExampleScenario.node[369].nic.mac1609_4 	RXTXLostPackets 	0
scalar RSUExampleScenario.node[369].nic.mac1609_4 	TotalLostPackets 	3
scalar RSUExampleScenario.node[369].nic.mac1609_4 	DroppedPacketsInMac 	0
scalar RSUExampleScenario.node[369].nic.mac1609_4 	TooLittleTime 	0
scalar RSUExampleScenario.node[369].nic.mac1609_4 	TimesIntoBackoff 	1
scalar RSUExampleScenario.node[369].nic.mac1609_4 	SlotsBackoff 	6
scalar RSUExampleScenario.node[369].nic.mac1609_4 	NumInternalContention 	0
scalar RSUExampleScenario.node[369].nic.mac1609_4 	totalBusyTime 	0.004441
scalar RSUExampleScenario.node[369].veinsmobility 	startTime 	1636
scalar RSUExampleScenario.node[369].veinsmobility 	totalTime 	677
scalar RSUExampleScenario.node[369].veinsmobility 	stopTime 	2314
scalar RSUExampleScenario.node[369].veinsmobility 	minSpeed 	0
scalar RSUExampleScenario.node[369].veinsmobility 	maxSpeed 	16.669031701745
scalar RSUExampleScenario.node[369].veinsmobility 	totalDistance 	3656.9620290807
scalar RSUExampleScenario.node[369].veinsmobility 	totalCO2Emission 	1204.479232081
scalar RSUExampleScenario.node[337].nic.phy80211p 	busyTime 	9.344262295082e-06
scalar RSUExampleScenario.node[337].nic.mac1609_4 	ReceivedUnicastPackets 	0
scalar RSUExampleScenario.node[337].nic.mac1609_4 	ReceivedBroadcasts 	49
scalar RSUExampleScenario.node[337].nic.mac1609_4 	SentPackets 	1
scalar RSUExampleScenario.node[337].nic.mac1609_4 	SNIRLostPackets 	8
scalar RSUExampleScenario.node[337].nic.mac1609_4 	RXTXLostPackets 	0
scalar RSUExampleScenario.node[337].nic.mac1609_4 	TotalLostPackets 	8
scalar RSUExampleScenario.node[337].nic.mac1609_4 	DroppedPacketsInMac 	0
scalar RSUExampleScenario.node[337].nic.mac1609_4 	TooLittleTime 	0
scalar RSUExampleScenario.node[337].nic.mac1609_4 	TimesIntoBackoff 	1
scalar RSUExampleScenario.node[337].nic.mac1609_4 	SlotsBackoff 	1
scalar RSUExampleScenario.node[337].nic.mac1609_4 	NumInternalContention 	0
scalar RSUExampleScenario.node[337].nic.mac1609_4 	totalBusyTime 	0.006481102182
scalar RSUExampleScenario.node[337].veinsmobility 	startTime 	1585
scalar RSUExampleScenario.node[337].veinsmobility 	totalTime 	731
scalar RSUExampleScenario.node[337].veinsmobility 	stopTime 	2317
scalar RSUExampleScenario.node[337].veinsmobility 	minSpeed 	0
scalar RSUExampleScenario.node[337].veinsmobility 	maxSpeed 	16.66515011632
scalar RSUExampleScenario.node[337].veinsmobility 	totalDistance 	3761.6653907332
scalar RSUExampleScenario.node[337].veinsmobility 	totalCO2Emission 	1325.8238727831
scalar RSUExampleScenario.node[338].nic.phy80211p 	busyTime 	9.344262295082e-06
scalar RSUExampleScenario.node[338].nic.mac1609_4 	ReceivedUnicastPackets 	0
scalar RSUExampleScenario.node[338].nic.mac1609_4 	ReceivedBroadcasts 	49
scalar RSUExampleScenario.node[338].nic.mac1609_4 	SentPackets 	1
scalar RSUExampleScenario.node[338].nic.mac1609_4 	SNIRLostPackets 	8
scalar RSUExampleScenario.node[338].nic.mac1609_4 	RXTXLostPackets 	0
scalar RSUExampleScenario.node[338].nic.mac1609_4 	TotalLostPackets 	8
scalar RSUExampleScenario.node[338].nic.mac1609_4 	DroppedPacketsInMac 	0
scalar RSUExampleScenario.node[338].nic.mac1609_4 	TooLittleTime 	0
scalar RSUExampleScenario.node[338].nic.mac1609_4 	TimesIntoBackoff 	1
scalar RSUExampleScenario.node[338].nic.mac1609_4 	SlotsBackoff 	7
scalar RSUExampleScenario.node[338].nic.mac1609_4 	NumInternalContention 	0
scalar RSUExampleScenario.node[338].nic.mac1609_4 	totalBusyTime 	0.006481144479
scalar RSUExampleScenario.node[338].veinsmobility 	startTime 	1588
scalar RSUExampleScenario.node[338].veinsmobility 	totalTime 	731
scalar RSUExampleScenario.node[338].veinsmobility 	stopTime 	2320
scalar RSUExampleScenario.node[338].veinsmobility 	minSpeed 	0
scalar RSUExampleScenario.node[338].veinsmobility 	maxSpeed 	16.669437900797
scalar RSUExampleScenario.node[338].veinsmobility 	totalDistance 	3757.744557336
scalar RSUExampleScenario.node[338].veinsmobility 	totalCO2Emission 	1354.221790697
scalar RSUExampleScenario.node[388].nic.phy80211p 	busyTime 	3.5185185185185e-06
scalar RSUExampleScenario.node[388].nic.mac1609_4 	ReceivedUnicastPackets 	0
scalar RSUExampleScenario.node[388].nic.mac1609_4 	ReceivedBroadcasts 	19
scalar RSUExampleScenario.node[388].nic.mac1609_4 	SentPackets 	1
scalar RSUExampleScenario.node[388].nic.mac1609_4 	SNIRLostPackets 	0
scalar RSUExampleScenario.node[388].nic.mac1609_4 	RXTXLostPackets 	0
scalar RSUExampleScenario.node[388].nic.mac1609_4 	TotalLostPackets 	0
scalar RSUExampleScenario.node[388].nic.mac1609_4 	DroppedPacketsInMac 	0
scalar RSUExampleScenario.node[388].nic.mac1609_4 	TooLittleTime 	0
scalar RSUExampleScenario.node[388].nic.mac1609_4 	TimesIntoBackoff 	1
scalar RSUExampleScenario.node[388].nic.mac1609_4 	SlotsBackoff 	5
scalar RSUExampleScenario.node[388].nic.mac1609_4 	NumInternalContention 	0
scalar RSUExampleScenario.node[388].nic.mac1609_4 	totalBusyTime 	0.002401
scalar RSUExampleScenario.node[388].veinsmobility 	startTime 	1675
scalar RSUExampleScenario.node[388].veinsmobility 	totalTime 	647
scalar RSUExampleScenario.node[388].veinsmobility 	stopTime 	2323
scalar RSUExampleScenario.node[388].veinsmobility 	minSpeed 	0
scalar RSUExampleScenario.node[388].veinsmobility 	maxSpeed 	27.778890547457
scalar RSUExampleScenario.node[388].veinsmobility 	totalDistance 	3397.6412429938
scalar RSUExampleScenario.node[388].veinsmobility 	totalCO2Emission 	1145.7184384113
scalar RSUExampleScenario.node[389].nic.phy80211p 	busyTime 	0
scalar RSUExampleScenario.node[389].nic.mac1609_4 	ReceivedUnicastPackets 	0
scalar RSUExampleScenario.node[389].nic.mac1609_4 	ReceivedBroadcasts 	0
scalar RSUExampleScenario.node[389].nic.mac1609_4 	SentPackets 	1
scalar RSUExampleScenario.node[389].nic.mac1609_4 	SNIRLostPackets 	0
scalar RSUExampleScenario.node[389].nic.mac1609_4 	RXTXLostPackets 	0
scalar RSUExampleScenario.node[389].nic.mac1609_4 	TotalLostPackets 	0
scalar RSUExampleScenario.node[389].nic.mac1609_4 	DroppedPacketsInMac 	0
scalar RSUExampleScenario.node[389].nic.mac1609_4 	TooLittleTime 	0
scalar RSUExampleScenario.node[389].nic.mac1609_4 	TimesIntoBackoff 	1
scalar RSUExampleScenario.node[389].nic.mac1609_4 	SlotsBackoff 	0
scalar RSUExampleScenario.node[389].nic.mac1609_4 	NumInternalContention 	0
scalar RSUExampleScenario.node[389].nic.mac1609_4 	totalBusyTime 	0.000121
scalar RSUExampleScenario.node[389].veinsmobility 	startTime 	1677
scalar RSUExampleScenario.node[389].veinsmobility 	totalTime 	648
scalar RSUExampleScenario.node[389].veinsmobility 	stopTime 	2326
scalar RSUExampleScenario.node[389].veinsmobility 	minSpeed 	0
scalar RSUExampleScenario.node[389].veinsmobility 	maxSpeed 	27.77054826856
scalar RSUExampleScenario.node[389].veinsmobility 	totalDistance 	3395.3394634623
scalar RSUExampleScenario.node[389].veinsmobility 	totalCO2Emission 	1144.2155892688
scalar RSUExampleScenario.node[339].nic.phy80211p 	busyTime 	9.255751014885e-06
scalar RSUExampleScenario.node[339].nic.mac1609_4 	ReceivedUnicastPackets 	0
scalar RSUExampleScenario.node[339].nic.mac1609_4 	ReceivedBroadcasts 	50
scalar RSUExampleScenario.node[339].nic.mac1609_4 	SentPackets 	1
scalar RSUExampleScenario.node[339].nic.mac1609_4 	SNIRLostPackets 	7
scalar RSUExampleScenario.node[339].nic.mac1609_4 	RXTXLostPackets 	0
scalar RSUExampleScenario.node[339].nic.mac1609_4 	TotalLostPackets 	7
scalar RSUExampleScenario.node[339].nic.mac1609_4 	DroppedPacketsInMac 	0
scalar RSUExampleScenario.node[339].nic.mac1609_4 	TooLittleTime 	0
scalar RSUExampleScenario.node[339].nic.mac1609_4 	TimesIntoBackoff 	2
scalar RSUExampleScenario.node[339].nic.mac1609_4 	SlotsBackoff 	5
scalar RSUExampleScenario.node[339].nic.mac1609_4 	NumInternalContention 	0
scalar RSUExampleScenario.node[339].nic.mac1609_4 	totalBusyTime 	0.006481181132
scalar RSUExampleScenario.node[339].veinsmobility 	startTime 	1590
scalar RSUExampleScenario.node[339].veinsmobility 	totalTime 	738
scalar RSUExampleScenario.node[339].veinsmobility 	stopTime 	2329
scalar RSUExampleScenario.node[339].veinsmobility 	minSpeed 	0
scalar RSUExampleScenario.node[339].veinsmobility 	maxSpeed 	16.668204028463
scalar RSUExampleScenario.node[339].veinsmobility 	totalDistance 	3757.2545122085
scalar RSUExampleScenario.node[339].veinsmobility 	totalCO2Emission 	1334.2324083507
scalar RSUExampleScenario.node[340].nic.phy80211p 	busyTime 	9.2432432432433e-06
scalar RSUExampleScenario.node[340].nic.mac1609_4 	ReceivedUnicastPackets 	0
scalar RSUExampleScenario.node[340].nic.mac1609_4 	ReceivedBroadcasts 	49
scalar RSUExampleScenario.node[340].nic.mac1609_4 	SentPackets 	1
scalar RSUExampleScenario.node[340].nic.mac1609_4 	SNIRLostPackets 	8
scalar RSUExampleScenario.node[340].nic.mac1609_4 	RXTXLostPackets 	0
scalar RSUExampleScenario.node[340].nic.mac1609_4 	TotalLostPackets 	8
scalar RSUExampleScenario.node[340].nic.mac1609_4 	DroppedPacketsInMac 	0
scalar RSUExampleScenario.node[340].nic.mac1609_4 	TooLittleTime 	0
scalar RSUExampleScenario.node[340].nic.mac1609_4 	TimesIntoBackoff 	2
scalar RSUExampleScenario.node[340].nic.mac1609_4 	SlotsBackoff 	6
scalar RSUExampleScenario.node[340].nic.mac1609_4 	NumInternalContention 	0
scalar RSUExampleScenario.node[340].nic.mac1609_4 	totalBusyTime 	0.006481
scalar RSUExampleScenario.node[340].veinsmobility 	startTime 	1592
scalar RSUExampleScenario.node[340].veinsmobility 	totalTime 	739
scalar RSUExampleScenario.node[340].veinsmobility 	stopTime 	2332
scalar RSUExampleScenario.node[340].veinsmobility 	minSpeed 	0
scalar RSUExampleScenario.node[340].veinsmobility 	maxSpeed 	16.668630117686
scalar RSUExampleScenario.node[340].veinsmobility 	totalDistance 	3755.5466006429
scalar RSUExampleScenario.node[340].veinsmobility 	totalCO2Emission 	1321.8197026688
scalar RSUExampleScenario.rsu[0].nic.phy80211p 	busyTime 	1.92e-07
scalar RSUExampleScenario.rsu[0].nic.mac1609_4 	ReceivedUnicastPackets 	0
scalar RSUExampleScenario.rsu[0].nic.mac1609_4 	ReceivedBroadcasts 	14
scalar RSUExampleScenario.rsu[0].nic.mac1609_4 	SentPackets 	1
scalar RSUExampleScenario.rsu[0].nic.mac1609_4 	SNIRLostPackets 	2
scalar RSUExampleScenario.rsu[0].nic.mac1609_4 	RXTXLostPackets 	0
scalar RSUExampleScenario.rsu[0].nic.mac1609_4 	TotalLostPackets 	2
scalar RSUExampleScenario.rsu[0].nic.mac1609_4 	DroppedPacketsInMac 	0
scalar RSUExampleScenario.rsu[0].nic.mac1609_4 	TooLittleTime 	0
scalar RSUExampleScenario.rsu[0].nic.mac1609_4 	TimesIntoBackoff 	1
scalar RSUExampleScenario.rsu[0].nic.mac1609_4 	SlotsBackoff 	5
scalar RSUExampleScenario.rsu[0].nic.mac1609_4 	NumInternalContention 	0
scalar RSUExampleScenario.rsu[0].nic.mac1609_4 	totalBusyTime 	0.001921
