file 37097767 1483208916                                        
version 2
run debug-0-20161231-19:25:43-4188
attr configname debug
attr datetime 20161231-19:25:43
attr experiment debug
attr inifile omnetpp.ini
attr iterationvars ""
attr iterationvars2 $repetition=0
attr measurement ""
attr network RSUExampleScenario
attr processid 4188
attr repetition 0
attr replication #0
attr resultdir results
attr runnumber 0
attr seedset 0
param **.coreDebug false
param **.debug false
param *.**.nic.mac1609_4.bitrate 3Mbps
param *.**.nic.mac1609_4.txPower 20mW
param *.**.nic.mac1609_4.useServiceChannel false
param *.**.nic.phy80211p.analogueModels "xmldoc(\"config.xml\")"
param *.**.nic.phy80211p.decider "xmldoc(\"config.xml\")"
param *.**.nic.phy80211p.sensitivity -89dBm
param *.**.nic.phy80211p.thermalNoise -110dBm
param *.**.nic.phy80211p.usePropagationDelay true
param *.**.nic.phy80211p.useThermalNoise true
param *.annotations.draw false
param *.connectionManager.alpha 2.0
param *.connectionManager.carrierFrequency "5.890e9 Hz"
param *.connectionManager.pMax 12mW
param *.connectionManager.sat -89dBm
param *.connectionManager.sendDirect true
param *.manager.autoShutdown true
param *.manager.host "\"localhost\""
param *.manager.launchConfig "xmldoc(\"erlangen.launchd.xml\")"
param *.manager.margin 25
param *.manager.moduleDisplayString "\"\""
param *.manager.moduleName "\"node\""
param *.manager.moduleType "\"org.car2x.veins.nodes.Car\""
param *.manager.port 9999
param *.manager.updateInterval 1s
param *.node[*].appl.beaconInterval 1s
param *.node[*].appl.beaconPriority 3
param *.node[*].appl.dataOnSch false
param *.node[*].appl.dataPriority 2
param *.node[*].appl.debug false
param *.node[*].appl.headerLength "256 bit"
param *.node[*].appl.maxOffset 0.005s
param *.node[*].appl.sendBeacons false
param *.node[*].appl.sendData true
param *.node[*].applType "\"TraCIDemo11p\""
param *.node[*].mobilityType "\"TraCIMobility\""
param *.node[*].mobilityType.debug true
param *.node[*].veinsmobility.accidentCount 5
param *.node[*].veinsmobility.accidentDuration 43s
param *.node[*].veinsmobility.accidentStart 85s
param *.node[*].veinsmobility.x 0
param *.node[*].veinsmobility.y 0
param *.node[*].veinsmobility.z 1.895
param *.node[*].veinsmobilityType "\"org.car2x.veins.modules.mobility.traci.TraCIMobility\""
param *.node[*].veinsmobilityType.debug true
param *.obstacles.debug false
param *.obstacles.obstacles "xmldoc(\"config.xml\", \"//AnalogueModel[@type='SimpleObstacleShadowing']/obstacles\")"
param *.playgroundSizeX 2500m
param *.playgroundSizeY 2500m
param *.playgroundSizeZ 50m
param *.rsu[*].appl.beaconInterval 1s
param *.rsu[*].appl.beaconPriority 3
param *.rsu[*].appl.dataOnSch false
param *.rsu[*].appl.dataPriority 2
param *.rsu[*].appl.debug false
param *.rsu[*].appl.headerLength "256 bit"
param *.rsu[*].appl.maxOffset 0.005s
param *.rsu[*].appl.sendBeacons false
param *.rsu[*].appl.sendData true
param *.rsu[*].applType "\"TraCIDemoRSU11p\""
param *.rsu[0].mobility.x 2000
param *.rsu[0].mobility.y 2000
param *.rsu[0].mobility.z 3
param *.world.use2D false
param *.world.useTorus false

vector 4  RSUExampleScenario.node[0].veinsmobility  posx  ETV
vector 5  RSUExampleScenario.node[0].veinsmobility  posy  ETV
vector 6  RSUExampleScenario.node[0].veinsmobility  speed  ETV
vector 11  RSUExampleScenario.node[1].veinsmobility  posx  ETV
vector 12  RSUExampleScenario.node[1].veinsmobility  posy  ETV
vector 7  RSUExampleScenario.node[0].veinsmobility  acceleration  ETV
vector 8  RSUExampleScenario.node[0].veinsmobility  co2emission  ETV
vector 13  RSUExampleScenario.node[1].veinsmobility  speed  ETV
vector 18  RSUExampleScenario.node[2].veinsmobility  posx  ETV
vector 19  RSUExampleScenario.node[2].veinsmobility  posy  ETV
vector 14  RSUExampleScenario.node[1].veinsmobility  acceleration  ETV
vector 15  RSUExampleScenario.node[1].veinsmobility  co2emission  ETV
vector 20  RSUExampleScenario.node[2].veinsmobility  speed  ETV
vector 25  RSUExampleScenario.node[3].veinsmobility  posx  ETV
vector 26  RSUExampleScenario.node[3].veinsmobility  posy  ETV
vector 21  RSUExampleScenario.node[2].veinsmobility  acceleration  ETV
vector 22  RSUExampleScenario.node[2].veinsmobility  co2emission  ETV
vector 32  RSUExampleScenario.node[4].veinsmobility  posx  ETV
vector 33  RSUExampleScenario.node[4].veinsmobility  posy  ETV
vector 27  RSUExampleScenario.node[3].veinsmobility  speed  ETV
vector 28  RSUExampleScenario.node[3].veinsmobility  acceleration  ETV
vector 29  RSUExampleScenario.node[3].veinsmobility  co2emission  ETV
vector 34  RSUExampleScenario.node[4].veinsmobility  speed  ETV
vector 39  RSUExampleScenario.node[5].veinsmobility  posx  ETV
vector 40  RSUExampleScenario.node[5].veinsmobility  posy  ETV
vector 35  RSUExampleScenario.node[4].veinsmobility  acceleration  ETV
vector 36  RSUExampleScenario.node[4].veinsmobility  co2emission  ETV
vector 41  RSUExampleScenario.node[5].veinsmobility  speed  ETV
vector 46  RSUExampleScenario.node[6].veinsmobility  posx  ETV
vector 47  RSUExampleScenario.node[6].veinsmobility  posy  ETV
vector 42  RSUExampleScenario.node[5].veinsmobility  acceleration  ETV
vector 43  RSUExampleScenario.node[5].veinsmobility  co2emission  ETV
vector 48  RSUExampleScenario.node[6].veinsmobility  speed  ETV
vector 53  RSUExampleScenario.node[7].veinsmobility  posx  ETV
vector 54  RSUExampleScenario.node[7].veinsmobility  posy  ETV
vector 49  RSUExampleScenario.node[6].veinsmobility  acceleration  ETV
vector 50  RSUExampleScenario.node[6].veinsmobility  co2emission  ETV
vector 55  RSUExampleScenario.node[7].veinsmobility  speed  ETV
vector 60  RSUExampleScenario.node[8].veinsmobility  posx  ETV
vector 61  RSUExampleScenario.node[8].veinsmobility  posy  ETV
vector 56  RSUExampleScenario.node[7].veinsmobility  acceleration  ETV
vector 57  RSUExampleScenario.node[7].veinsmobility  co2emission  ETV
vector 67  RSUExampleScenario.node[9].veinsmobility  posx  ETV
vector 68  RSUExampleScenario.node[9].veinsmobility  posy  ETV
vector 62  RSUExampleScenario.node[8].veinsmobility  speed  ETV
vector 63  RSUExampleScenario.node[8].veinsmobility  acceleration  ETV
vector 64  RSUExampleScenario.node[8].veinsmobility  co2emission  ETV
vector 69  RSUExampleScenario.node[9].veinsmobility  speed  ETV
vector 74  RSUExampleScenario.node[10].veinsmobility  posx  ETV
vector 75  RSUExampleScenario.node[10].veinsmobility  posy  ETV
vector 70  RSUExampleScenario.node[9].veinsmobility  acceleration  ETV
vector 71  RSUExampleScenario.node[9].veinsmobility  co2emission  ETV
vector 81  RSUExampleScenario.node[11].veinsmobility  posx  ETV
vector 82  RSUExampleScenario.node[11].veinsmobility  posy  ETV
vector 76  RSUExampleScenario.node[10].veinsmobility  speed  ETV
vector 77  RSUExampleScenario.node[10].veinsmobility  acceleration  ETV
vector 78  RSUExampleScenario.node[10].veinsmobility  co2emission  ETV
vector 83  RSUExampleScenario.node[11].veinsmobility  speed  ETV
vector 84  RSUExampleScenario.node[11].veinsmobility  acceleration  ETV
vector 85  RSUExampleScenario.node[11].veinsmobility  co2emission  ETV
vector 88  RSUExampleScenario.node[12].veinsmobility  posx  ETV
vector 89  RSUExampleScenario.node[12].veinsmobility  posy  ETV
vector 90  RSUExampleScenario.node[12].veinsmobility  speed  ETV
vector 95  RSUExampleScenario.node[13].veinsmobility  posx  ETV
vector 96  RSUExampleScenario.node[13].veinsmobility  posy  ETV
vector 91  RSUExampleScenario.node[12].veinsmobility  acceleration  ETV
vector 92  RSUExampleScenario.node[12].veinsmobility  co2emission  ETV
vector 97  RSUExampleScenario.node[13].veinsmobility  speed  ETV
vector 102  RSUExampleScenario.node[14].veinsmobility  posx  ETV
vector 103  RSUExampleScenario.node[14].veinsmobility  posy  ETV
vector 98  RSUExampleScenario.node[13].veinsmobility  acceleration  ETV
vector 99  RSUExampleScenario.node[13].veinsmobility  co2emission  ETV
vector 109  RSUExampleScenario.node[15].veinsmobility  posx  ETV
vector 110  RSUExampleScenario.node[15].veinsmobility  posy  ETV
vector 104  RSUExampleScenario.node[14].veinsmobility  speed  ETV
vector 105  RSUExampleScenario.node[14].veinsmobility  acceleration  ETV
vector 106  RSUExampleScenario.node[14].veinsmobility  co2emission  ETV
vector 111  RSUExampleScenario.node[15].veinsmobility  speed  ETV
vector 116  RSUExampleScenario.node[16].veinsmobility  posx  ETV
vector 117  RSUExampleScenario.node[16].veinsmobility  posy  ETV
vector 112  RSUExampleScenario.node[15].veinsmobility  acceleration  ETV
vector 113  RSUExampleScenario.node[15].veinsmobility  co2emission  ETV
vector 123  RSUExampleScenario.node[17].veinsmobility  posx  ETV
vector 124  RSUExampleScenario.node[17].veinsmobility  posy  ETV
vector 118  RSUExampleScenario.node[16].veinsmobility  speed  ETV
vector 119  RSUExampleScenario.node[16].veinsmobility  acceleration  ETV
vector 120  RSUExampleScenario.node[16].veinsmobility  co2emission  ETV
vector 125  RSUExampleScenario.node[17].veinsmobility  speed  ETV
vector 130  RSUExampleScenario.node[18].veinsmobility  posx  ETV
vector 131  RSUExampleScenario.node[18].veinsmobility  posy  ETV
vector 126  RSUExampleScenario.node[17].veinsmobility  acceleration  ETV
vector 127  RSUExampleScenario.node[17].veinsmobility  co2emission  ETV
vector 137  RSUExampleScenario.node[19].veinsmobility  posx  ETV
vector 138  RSUExampleScenario.node[19].veinsmobility  posy  ETV
vector 132  RSUExampleScenario.node[18].veinsmobility  speed  ETV
vector 133  RSUExampleScenario.node[18].veinsmobility  acceleration  ETV
vector 134  RSUExampleScenario.node[18].veinsmobility  co2emission  ETV
vector 139  RSUExampleScenario.node[19].veinsmobility  speed  ETV
vector 144  RSUExampleScenario.node[20].veinsmobility  posx  ETV
vector 145  RSUExampleScenario.node[20].veinsmobility  posy  ETV
vector 140  RSUExampleScenario.node[19].veinsmobility  acceleration  ETV
vector 141  RSUExampleScenario.node[19].veinsmobility  co2emission  ETV
vector 151  RSUExampleScenario.node[21].veinsmobility  posx  ETV
vector 152  RSUExampleScenario.node[21].veinsmobility  posy  ETV
vector 146  RSUExampleScenario.node[20].veinsmobility  speed  ETV
vector 147  RSUExampleScenario.node[20].veinsmobility  acceleration  ETV
vector 148  RSUExampleScenario.node[20].veinsmobility  co2emission  ETV
vector 153  RSUExampleScenario.node[21].veinsmobility  speed  ETV
vector 158  RSUExampleScenario.node[22].veinsmobility  posx  ETV
vector 159  RSUExampleScenario.node[22].veinsmobility  posy  ETV
vector 154  RSUExampleScenario.node[21].veinsmobility  acceleration  ETV
vector 155  RSUExampleScenario.node[21].veinsmobility  co2emission  ETV
vector 160  RSUExampleScenario.node[22].veinsmobility  speed  ETV
vector 161  RSUExampleScenario.node[22].veinsmobility  acceleration  ETV
vector 162  RSUExampleScenario.node[22].veinsmobility  co2emission  ETV
vector 165  RSUExampleScenario.node[23].veinsmobility  posx  ETV
vector 166  RSUExampleScenario.node[23].veinsmobility  posy  ETV
vector 167  RSUExampleScenario.node[23].veinsmobility  speed  ETV
vector 172  RSUExampleScenario.node[24].veinsmobility  posx  ETV
vector 173  RSUExampleScenario.node[24].veinsmobility  posy  ETV
vector 168  RSUExampleScenario.node[23].veinsmobility  acceleration  ETV
vector 169  RSUExampleScenario.node[23].veinsmobility  co2emission  ETV
vector 174  RSUExampleScenario.node[24].veinsmobility  speed  ETV
vector 179  RSUExampleScenario.node[25].veinsmobility  posx  ETV
vector 180  RSUExampleScenario.node[25].veinsmobility  posy  ETV
vector 175  RSUExampleScenario.node[24].veinsmobility  acceleration  ETV
vector 176  RSUExampleScenario.node[24].veinsmobility  co2emission  ETV
vector 181  RSUExampleScenario.node[25].veinsmobility  speed  ETV
vector 186  RSUExampleScenario.node[26].veinsmobility  posx  ETV
vector 187  RSUExampleScenario.node[26].veinsmobility  posy  ETV
vector 182  RSUExampleScenario.node[25].veinsmobility  acceleration  ETV
vector 183  RSUExampleScenario.node[25].veinsmobility  co2emission  ETV
vector 193  RSUExampleScenario.node[27].veinsmobility  posx  ETV
vector 194  RSUExampleScenario.node[27].veinsmobility  posy  ETV
vector 188  RSUExampleScenario.node[26].veinsmobility  speed  ETV
vector 189  RSUExampleScenario.node[26].veinsmobility  acceleration  ETV
vector 190  RSUExampleScenario.node[26].veinsmobility  co2emission  ETV
vector 195  RSUExampleScenario.node[27].veinsmobility  speed  ETV
vector 200  RSUExampleScenario.node[28].veinsmobility  posx  ETV
vector 201  RSUExampleScenario.node[28].veinsmobility  posy  ETV
vector 196  RSUExampleScenario.node[27].veinsmobility  acceleration  ETV
vector 197  RSUExampleScenario.node[27].veinsmobility  co2emission  ETV
vector 202  RSUExampleScenario.node[28].veinsmobility  speed  ETV
vector 207  RSUExampleScenario.node[29].veinsmobility  posx  ETV
vector 208  RSUExampleScenario.node[29].veinsmobility  posy  ETV
vector 203  RSUExampleScenario.node[28].veinsmobility  acceleration  ETV
vector 204  RSUExampleScenario.node[28].veinsmobility  co2emission  ETV
vector 209  RSUExampleScenario.node[29].veinsmobility  speed  ETV
vector 214  RSUExampleScenario.node[30].veinsmobility  posx  ETV
vector 215  RSUExampleScenario.node[30].veinsmobility  posy  ETV
vector 210  RSUExampleScenario.node[29].veinsmobility  acceleration  ETV
vector 211  RSUExampleScenario.node[29].veinsmobility  co2emission  ETV
vector 221  RSUExampleScenario.node[31].veinsmobility  posx  ETV
vector 222  RSUExampleScenario.node[31].veinsmobility  posy  ETV
vector 216  RSUExampleScenario.node[30].veinsmobility  speed  ETV
vector 217  RSUExampleScenario.node[30].veinsmobility  acceleration  ETV
vector 218  RSUExampleScenario.node[30].veinsmobility  co2emission  ETV
vector 223  RSUExampleScenario.node[31].veinsmobility  speed  ETV
vector 228  RSUExampleScenario.node[32].veinsmobility  posx  ETV
vector 229  RSUExampleScenario.node[32].veinsmobility  posy  ETV
vector 224  RSUExampleScenario.node[31].veinsmobility  acceleration  ETV
vector 225  RSUExampleScenario.node[31].veinsmobility  co2emission  ETV
vector 230  RSUExampleScenario.node[32].veinsmobility  speed  ETV
vector 235  RSUExampleScenario.node[33].veinsmobility  posx  ETV
vector 236  RSUExampleScenario.node[33].veinsmobility  posy  ETV
vector 231  RSUExampleScenario.node[32].veinsmobility  acceleration  ETV
vector 232  RSUExampleScenario.node[32].veinsmobility  co2emission  ETV
vector 237  RSUExampleScenario.node[33].veinsmobility  speed  ETV
vector 242  RSUExampleScenario.node[34].veinsmobility  posx  ETV
vector 243  RSUExampleScenario.node[34].veinsmobility  posy  ETV
vector 238  RSUExampleScenario.node[33].veinsmobility  acceleration  ETV
vector 239  RSUExampleScenario.node[33].veinsmobility  co2emission  ETV
vector 244  RSUExampleScenario.node[34].veinsmobility  speed  ETV
vector 249  RSUExampleScenario.node[35].veinsmobility  posx  ETV
vector 250  RSUExampleScenario.node[35].veinsmobility  posy  ETV
vector 245  RSUExampleScenario.node[34].veinsmobility  acceleration  ETV
vector 246  RSUExampleScenario.node[34].veinsmobility  co2emission  ETV
vector 251  RSUExampleScenario.node[35].veinsmobility  speed  ETV
vector 256  RSUExampleScenario.node[36].veinsmobility  posx  ETV
vector 257  RSUExampleScenario.node[36].veinsmobility  posy  ETV
vector 252  RSUExampleScenario.node[35].veinsmobility  acceleration  ETV
vector 253  RSUExampleScenario.node[35].veinsmobility  co2emission  ETV
vector 258  RSUExampleScenario.node[36].veinsmobility  speed  ETV
vector 263  RSUExampleScenario.node[37].veinsmobility  posx  ETV
vector 264  RSUExampleScenario.node[37].veinsmobility  posy  ETV
vector 259  RSUExampleScenario.node[36].veinsmobility  acceleration  ETV
vector 260  RSUExampleScenario.node[36].veinsmobility  co2emission  ETV
vector 265  RSUExampleScenario.node[37].veinsmobility  speed  ETV
vector 270  RSUExampleScenario.node[38].veinsmobility  posx  ETV
vector 271  RSUExampleScenario.node[38].veinsmobility  posy  ETV
vector 266  RSUExampleScenario.node[37].veinsmobility  acceleration  ETV
vector 267  RSUExampleScenario.node[37].veinsmobility  co2emission  ETV
vector 272  RSUExampleScenario.node[38].veinsmobility  speed  ETV
vector 277  RSUExampleScenario.node[39].veinsmobility  posx  ETV
vector 278  RSUExampleScenario.node[39].veinsmobility  posy  ETV
vector 273  RSUExampleScenario.node[38].veinsmobility  acceleration  ETV
vector 274  RSUExampleScenario.node[38].veinsmobility  co2emission  ETV
vector 279  RSUExampleScenario.node[39].veinsmobility  speed  ETV
vector 284  RSUExampleScenario.node[40].veinsmobility  posx  ETV
vector 285  RSUExampleScenario.node[40].veinsmobility  posy  ETV
vector 280  RSUExampleScenario.node[39].veinsmobility  acceleration  ETV
vector 281  RSUExampleScenario.node[39].veinsmobility  co2emission  ETV
vector 286  RSUExampleScenario.node[40].veinsmobility  speed  ETV
vector 291  RSUExampleScenario.node[41].veinsmobility  posx  ETV
vector 292  RSUExampleScenario.node[41].veinsmobility  posy  ETV
vector 287  RSUExampleScenario.node[40].veinsmobility  acceleration  ETV
vector 288  RSUExampleScenario.node[40].veinsmobility  co2emission  ETV
vector 293  RSUExampleScenario.node[41].veinsmobility  speed  ETV
vector 298  RSUExampleScenario.node[42].veinsmobility  posx  ETV
vector 299  RSUExampleScenario.node[42].veinsmobility  posy  ETV
vector 294  RSUExampleScenario.node[41].veinsmobility  acceleration  ETV
vector 295  RSUExampleScenario.node[41].veinsmobility  co2emission  ETV
vector 300  RSUExampleScenario.node[42].veinsmobility  speed  ETV
vector 305  RSUExampleScenario.node[43].veinsmobility  posx  ETV
vector 306  RSUExampleScenario.node[43].veinsmobility  posy  ETV
vector 301  RSUExampleScenario.node[42].veinsmobility  acceleration  ETV
vector 302  RSUExampleScenario.node[42].veinsmobility  co2emission  ETV
vector 307  RSUExampleScenario.node[43].veinsmobility  speed  ETV
vector 308  RSUExampleScenario.node[43].veinsmobility  acceleration  ETV
vector 309  RSUExampleScenario.node[43].veinsmobility  co2emission  ETV
vector 312  RSUExampleScenario.node[44].veinsmobility  posx  ETV
vector 313  RSUExampleScenario.node[44].veinsmobility  posy  ETV
vector 314  RSUExampleScenario.node[44].veinsmobility  speed  ETV
vector 315  RSUExampleScenario.node[44].veinsmobility  acceleration  ETV
vector 316  RSUExampleScenario.node[44].veinsmobility  co2emission  ETV
vector 319  RSUExampleScenario.node[45].veinsmobility  posx  ETV
vector 320  RSUExampleScenario.node[45].veinsmobility  posy  ETV
vector 321  RSUExampleScenario.node[45].veinsmobility  speed  ETV
vector 326  RSUExampleScenario.node[46].veinsmobility  posx  ETV
vector 327  RSUExampleScenario.node[46].veinsmobility  posy  ETV
vector 322  RSUExampleScenario.node[45].veinsmobility  acceleration  ETV
vector 323  RSUExampleScenario.node[45].veinsmobility  co2emission  ETV
vector 328  RSUExampleScenario.node[46].veinsmobility  speed  ETV
vector 329  RSUExampleScenario.node[46].veinsmobility  acceleration  ETV
vector 330  RSUExampleScenario.node[46].veinsmobility  co2emission  ETV
vector 333  RSUExampleScenario.node[47].veinsmobility  posx  ETV
vector 334  RSUExampleScenario.node[47].veinsmobility  posy  ETV
vector 335  RSUExampleScenario.node[47].veinsmobility  speed  ETV
vector 340  RSUExampleScenario.node[48].veinsmobility  posx  ETV
vector 341  RSUExampleScenario.node[48].veinsmobility  posy  ETV
vector 336  RSUExampleScenario.node[47].veinsmobility  acceleration  ETV
vector 337  RSUExampleScenario.node[47].veinsmobility  co2emission  ETV
vector 342  RSUExampleScenario.node[48].veinsmobility  speed  ETV
vector 347  RSUExampleScenario.node[49].veinsmobility  posx  ETV
vector 348  RSUExampleScenario.node[49].veinsmobility  posy  ETV
vector 343  RSUExampleScenario.node[48].veinsmobility  acceleration  ETV
vector 344  RSUExampleScenario.node[48].veinsmobility  co2emission  ETV
vector 349  RSUExampleScenario.node[49].veinsmobility  speed  ETV
vector 354  RSUExampleScenario.node[50].veinsmobility  posx  ETV
vector 355  RSUExampleScenario.node[50].veinsmobility  posy  ETV
vector 350  RSUExampleScenario.node[49].veinsmobility  acceleration  ETV
vector 351  RSUExampleScenario.node[49].veinsmobility  co2emission  ETV
vector 356  RSUExampleScenario.node[50].veinsmobility  speed  ETV
vector 361  RSUExampleScenario.node[51].veinsmobility  posx  ETV
vector 362  RSUExampleScenario.node[51].veinsmobility  posy  ETV
vector 357  RSUExampleScenario.node[50].veinsmobility  acceleration  ETV
vector 358  RSUExampleScenario.node[50].veinsmobility  co2emission  ETV
vector 363  RSUExampleScenario.node[51].veinsmobility  speed  ETV
vector 368  RSUExampleScenario.node[52].veinsmobility  posx  ETV
vector 369  RSUExampleScenario.node[52].veinsmobility  posy  ETV
vector 364  RSUExampleScenario.node[51].veinsmobility  acceleration  ETV
vector 365  RSUExampleScenario.node[51].veinsmobility  co2emission  ETV
vector 370  RSUExampleScenario.node[52].veinsmobility  speed  ETV
vector 371  RSUExampleScenario.node[52].veinsmobility  acceleration  ETV
vector 372  RSUExampleScenario.node[52].veinsmobility  co2emission  ETV
vector 375  RSUExampleScenario.node[53].veinsmobility  posx  ETV
vector 376  RSUExampleScenario.node[53].veinsmobility  posy  ETV
vector 377  RSUExampleScenario.node[53].veinsmobility  speed  ETV
vector 382  RSUExampleScenario.node[54].veinsmobility  posx  ETV
vector 383  RSUExampleScenario.node[54].veinsmobility  posy  ETV
vector 378  RSUExampleScenario.node[53].veinsmobility  acceleration  ETV
vector 379  RSUExampleScenario.node[53].veinsmobility  co2emission  ETV
vector 384  RSUExampleScenario.node[54].veinsmobility  speed  ETV
vector 389  RSUExampleScenario.node[55].veinsmobility  posx  ETV
vector 390  RSUExampleScenario.node[55].veinsmobility  posy  ETV
vector 385  RSUExampleScenario.node[54].veinsmobility  acceleration  ETV
vector 386  RSUExampleScenario.node[54].veinsmobility  co2emission  ETV
vector 391  RSUExampleScenario.node[55].veinsmobility  speed  ETV
vector 396  RSUExampleScenario.node[56].veinsmobility  posx  ETV
vector 397  RSUExampleScenario.node[56].veinsmobility  posy  ETV
vector 392  RSUExampleScenario.node[55].veinsmobility  acceleration  ETV
vector 393  RSUExampleScenario.node[55].veinsmobility  co2emission  ETV
vector 398  RSUExampleScenario.node[56].veinsmobility  speed  ETV
vector 403  RSUExampleScenario.node[57].veinsmobility  posx  ETV
vector 404  RSUExampleScenario.node[57].veinsmobility  posy  ETV
vector 399  RSUExampleScenario.node[56].veinsmobility  acceleration  ETV
vector 400  RSUExampleScenario.node[56].veinsmobility  co2emission  ETV
vector 405  RSUExampleScenario.node[57].veinsmobility  speed  ETV
vector 406  RSUExampleScenario.node[57].veinsmobility  acceleration  ETV
vector 407  RSUExampleScenario.node[57].veinsmobility  co2emission  ETV
vector 410  RSUExampleScenario.node[58].veinsmobility  posx  ETV
vector 411  RSUExampleScenario.node[58].veinsmobility  posy  ETV
vector 412  RSUExampleScenario.node[58].veinsmobility  speed  ETV
vector 417  RSUExampleScenario.node[59].veinsmobility  posx  ETV
vector 418  RSUExampleScenario.node[59].veinsmobility  posy  ETV
vector 413  RSUExampleScenario.node[58].veinsmobility  acceleration  ETV
vector 414  RSUExampleScenario.node[58].veinsmobility  co2emission  ETV
vector 419  RSUExampleScenario.node[59].veinsmobility  speed  ETV
vector 424  RSUExampleScenario.node[60].veinsmobility  posx  ETV
vector 425  RSUExampleScenario.node[60].veinsmobility  posy  ETV
vector 420  RSUExampleScenario.node[59].veinsmobility  acceleration  ETV
vector 421  RSUExampleScenario.node[59].veinsmobility  co2emission  ETV
vector 426  RSUExampleScenario.node[60].veinsmobility  speed  ETV
vector 427  RSUExampleScenario.node[60].veinsmobility  acceleration  ETV
vector 428  RSUExampleScenario.node[60].veinsmobility  co2emission  ETV
vector 431  RSUExampleScenario.node[61].veinsmobility  posx  ETV
vector 432  RSUExampleScenario.node[61].veinsmobility  posy  ETV
vector 433  RSUExampleScenario.node[61].veinsmobility  speed  ETV
vector 438  RSUExampleScenario.node[62].veinsmobility  posx  ETV
vector 439  RSUExampleScenario.node[62].veinsmobility  posy  ETV
vector 434  RSUExampleScenario.node[61].veinsmobility  acceleration  ETV
vector 435  RSUExampleScenario.node[61].veinsmobility  co2emission  ETV
vector 440  RSUExampleScenario.node[62].veinsmobility  speed  ETV
vector 445  RSUExampleScenario.node[63].veinsmobility  posx  ETV
vector 446  RSUExampleScenario.node[63].veinsmobility  posy  ETV
vector 441  RSUExampleScenario.node[62].veinsmobility  acceleration  ETV
vector 442  RSUExampleScenario.node[62].veinsmobility  co2emission  ETV
vector 447  RSUExampleScenario.node[63].veinsmobility  speed  ETV
vector 448  RSUExampleScenario.node[63].veinsmobility  acceleration  ETV
vector 449  RSUExampleScenario.node[63].veinsmobility  co2emission  ETV
vector 452  RSUExampleScenario.node[64].veinsmobility  posx  ETV
vector 453  RSUExampleScenario.node[64].veinsmobility  posy  ETV
vector 454  RSUExampleScenario.node[64].veinsmobility  speed  ETV
vector 459  RSUExampleScenario.node[65].veinsmobility  posx  ETV
vector 460  RSUExampleScenario.node[65].veinsmobility  posy  ETV
vector 455  RSUExampleScenario.node[64].veinsmobility  acceleration  ETV
vector 456  RSUExampleScenario.node[64].veinsmobility  co2emission  ETV
vector 461  RSUExampleScenario.node[65].veinsmobility  speed  ETV
vector 466  RSUExampleScenario.node[66].veinsmobility  posx  ETV
vector 467  RSUExampleScenario.node[66].veinsmobility  posy  ETV
vector 462  RSUExampleScenario.node[65].veinsmobility  acceleration  ETV
vector 463  RSUExampleScenario.node[65].veinsmobility  co2emission  ETV
vector 468  RSUExampleScenario.node[66].veinsmobility  speed  ETV
vector 469  RSUExampleScenario.node[66].veinsmobility  acceleration  ETV
vector 470  RSUExampleScenario.node[66].veinsmobility  co2emission  ETV
vector 473  RSUExampleScenario.node[67].veinsmobility  posx  ETV
vector 474  RSUExampleScenario.node[67].veinsmobility  posy  ETV
vector 475  RSUExampleScenario.node[67].veinsmobility  speed  ETV
vector 480  RSUExampleScenario.node[68].veinsmobility  posx  ETV
vector 481  RSUExampleScenario.node[68].veinsmobility  posy  ETV
vector 476  RSUExampleScenario.node[67].veinsmobility  acceleration  ETV
vector 477  RSUExampleScenario.node[67].veinsmobility  co2emission  ETV
vector 482  RSUExampleScenario.node[68].veinsmobility  speed  ETV
vector 487  RSUExampleScenario.node[69].veinsmobility  posx  ETV
vector 488  RSUExampleScenario.node[69].veinsmobility  posy  ETV
vector 483  RSUExampleScenario.node[68].veinsmobility  acceleration  ETV
vector 484  RSUExampleScenario.node[68].veinsmobility  co2emission  ETV
vector 489  RSUExampleScenario.node[69].veinsmobility  speed  ETV
vector 494  RSUExampleScenario.node[70].veinsmobility  posx  ETV
vector 495  RSUExampleScenario.node[70].veinsmobility  posy  ETV
vector 490  RSUExampleScenario.node[69].veinsmobility  acceleration  ETV
vector 491  RSUExampleScenario.node[69].veinsmobility  co2emission  ETV
vector 496  RSUExampleScenario.node[70].veinsmobility  speed  ETV
vector 497  RSUExampleScenario.node[70].veinsmobility  acceleration  ETV
vector 498  RSUExampleScenario.node[70].veinsmobility  co2emission  ETV
vector 501  RSUExampleScenario.node[71].veinsmobility  posx  ETV
vector 502  RSUExampleScenario.node[71].veinsmobility  posy  ETV
vector 503  RSUExampleScenario.node[71].veinsmobility  speed  ETV
vector 508  RSUExampleScenario.node[72].veinsmobility  posx  ETV
vector 509  RSUExampleScenario.node[72].veinsmobility  posy  ETV
vector 504  RSUExampleScenario.node[71].veinsmobility  acceleration  ETV
vector 505  RSUExampleScenario.node[71].veinsmobility  co2emission  ETV
vector 510  RSUExampleScenario.node[72].veinsmobility  speed  ETV
vector 515  RSUExampleScenario.node[73].veinsmobility  posx  ETV
vector 516  RSUExampleScenario.node[73].veinsmobility  posy  ETV
vector 511  RSUExampleScenario.node[72].veinsmobility  acceleration  ETV
vector 512  RSUExampleScenario.node[72].veinsmobility  co2emission  ETV
vector 517  RSUExampleScenario.node[73].veinsmobility  speed  ETV
vector 522  RSUExampleScenario.node[74].veinsmobility  posx  ETV
vector 523  RSUExampleScenario.node[74].veinsmobility  posy  ETV
vector 518  RSUExampleScenario.node[73].veinsmobility  acceleration  ETV
vector 519  RSUExampleScenario.node[73].veinsmobility  co2emission  ETV
vector 524  RSUExampleScenario.node[74].veinsmobility  speed  ETV
vector 525  RSUExampleScenario.node[74].veinsmobility  acceleration  ETV
vector 526  RSUExampleScenario.node[74].veinsmobility  co2emission  ETV
vector 529  RSUExampleScenario.node[75].veinsmobility  posx  ETV
vector 530  RSUExampleScenario.node[75].veinsmobility  posy  ETV
vector 531  RSUExampleScenario.node[75].veinsmobility  speed  ETV
vector 536  RSUExampleScenario.node[76].veinsmobility  posx  ETV
vector 537  RSUExampleScenario.node[76].veinsmobility  posy  ETV
vector 532  RSUExampleScenario.node[75].veinsmobility  acceleration  ETV
vector 533  RSUExampleScenario.node[75].veinsmobility  co2emission  ETV
vector 538  RSUExampleScenario.node[76].veinsmobility  speed  ETV
vector 543  RSUExampleScenario.node[77].veinsmobility  posx  ETV
vector 544  RSUExampleScenario.node[77].veinsmobility  posy  ETV
vector 539  RSUExampleScenario.node[76].veinsmobility  acceleration  ETV
vector 540  RSUExampleScenario.node[76].veinsmobility  co2emission  ETV
vector 545  RSUExampleScenario.node[77].veinsmobility  speed  ETV
vector 550  RSUExampleScenario.node[78].veinsmobility  posx  ETV
vector 551  RSUExampleScenario.node[78].veinsmobility  posy  ETV
vector 546  RSUExampleScenario.node[77].veinsmobility  acceleration  ETV
vector 547  RSUExampleScenario.node[77].veinsmobility  co2emission  ETV
vector 552  RSUExampleScenario.node[78].veinsmobility  speed  ETV
vector 553  RSUExampleScenario.node[78].veinsmobility  acceleration  ETV
vector 554  RSUExampleScenario.node[78].veinsmobility  co2emission  ETV
vector 557  RSUExampleScenario.node[79].veinsmobility  posx  ETV
vector 558  RSUExampleScenario.node[79].veinsmobility  posy  ETV
vector 559  RSUExampleScenario.node[79].veinsmobility  speed  ETV
vector 564  RSUExampleScenario.node[80].veinsmobility  posx  ETV
vector 565  RSUExampleScenario.node[80].veinsmobility  posy  ETV
vector 560  RSUExampleScenario.node[79].veinsmobility  acceleration  ETV
vector 561  RSUExampleScenario.node[79].veinsmobility  co2emission  ETV
vector 566  RSUExampleScenario.node[80].veinsmobility  speed  ETV
vector 567  RSUExampleScenario.node[80].veinsmobility  acceleration  ETV
vector 568  RSUExampleScenario.node[80].veinsmobility  co2emission  ETV
vector 571  RSUExampleScenario.node[81].veinsmobility  posx  ETV
vector 572  RSUExampleScenario.node[81].veinsmobility  posy  ETV
vector 573  RSUExampleScenario.node[81].veinsmobility  speed  ETV
vector 578  RSUExampleScenario.node[82].veinsmobility  posx  ETV
vector 579  RSUExampleScenario.node[82].veinsmobility  posy  ETV
vector 574  RSUExampleScenario.node[81].veinsmobility  acceleration  ETV
vector 575  RSUExampleScenario.node[81].veinsmobility  co2emission  ETV
vector 580  RSUExampleScenario.node[82].veinsmobility  speed  ETV
vector 585  RSUExampleScenario.node[83].veinsmobility  posx  ETV
vector 586  RSUExampleScenario.node[83].veinsmobility  posy  ETV
vector 581  RSUExampleScenario.node[82].veinsmobility  acceleration  ETV
vector 582  RSUExampleScenario.node[82].veinsmobility  co2emission  ETV
vector 587  RSUExampleScenario.node[83].veinsmobility  speed  ETV
vector 588  RSUExampleScenario.node[83].veinsmobility  acceleration  ETV
vector 589  RSUExampleScenario.node[83].veinsmobility  co2emission  ETV
vector 592  RSUExampleScenario.node[84].veinsmobility  posx  ETV
vector 593  RSUExampleScenario.node[84].veinsmobility  posy  ETV
vector 594  RSUExampleScenario.node[84].veinsmobility  speed  ETV
vector 599  RSUExampleScenario.node[85].veinsmobility  posx  ETV
vector 600  RSUExampleScenario.node[85].veinsmobility  posy  ETV
vector 595  RSUExampleScenario.node[84].veinsmobility  acceleration  ETV
vector 596  RSUExampleScenario.node[84].veinsmobility  co2emission  ETV
vector 601  RSUExampleScenario.node[85].veinsmobility  speed  ETV
vector 602  RSUExampleScenario.node[85].veinsmobility  acceleration  ETV
vector 603  RSUExampleScenario.node[85].veinsmobility  co2emission  ETV
vector 606  RSUExampleScenario.node[86].veinsmobility  posx  ETV
vector 607  RSUExampleScenario.node[86].veinsmobility  posy  ETV
vector 608  RSUExampleScenario.node[86].veinsmobility  speed  ETV
vector 613  RSUExampleScenario.node[87].veinsmobility  posx  ETV
vector 614  RSUExampleScenario.node[87].veinsmobility  posy  ETV
vector 609  RSUExampleScenario.node[86].veinsmobility  acceleration  ETV
vector 610  RSUExampleScenario.node[86].veinsmobility  co2emission  ETV
vector 615  RSUExampleScenario.node[87].veinsmobility  speed  ETV
vector 616  RSUExampleScenario.node[87].veinsmobility  acceleration  ETV
vector 617  RSUExampleScenario.node[87].veinsmobility  co2emission  ETV
vector 620  RSUExampleScenario.node[88].veinsmobility  posx  ETV
vector 621  RSUExampleScenario.node[88].veinsmobility  posy  ETV
vector 622  RSUExampleScenario.node[88].veinsmobility  speed  ETV
vector 627  RSUExampleScenario.node[89].veinsmobility  posx  ETV
vector 628  RSUExampleScenario.node[89].veinsmobility  posy  ETV
vector 623  RSUExampleScenario.node[88].veinsmobility  acceleration  ETV
vector 624  RSUExampleScenario.node[88].veinsmobility  co2emission  ETV
vector 629  RSUExampleScenario.node[89].veinsmobility  speed  ETV
vector 630  RSUExampleScenario.node[89].veinsmobility  acceleration  ETV
vector 631  RSUExampleScenario.node[89].veinsmobility  co2emission  ETV
vector 634  RSUExampleScenario.node[90].veinsmobility  posx  ETV
vector 635  RSUExampleScenario.node[90].veinsmobility  posy  ETV
vector 636  RSUExampleScenario.node[90].veinsmobility  speed  ETV
vector 641  RSUExampleScenario.node[91].veinsmobility  posx  ETV
vector 642  RSUExampleScenario.node[91].veinsmobility  posy  ETV
vector 637  RSUExampleScenario.node[90].veinsmobility  acceleration  ETV
vector 638  RSUExampleScenario.node[90].veinsmobility  co2emission  ETV
vector 643  RSUExampleScenario.node[91].veinsmobility  speed  ETV
vector 648  RSUExampleScenario.node[92].veinsmobility  posx  ETV
vector 649  RSUExampleScenario.node[92].veinsmobility  posy  ETV
vector 644  RSUExampleScenario.node[91].veinsmobility  acceleration  ETV
vector 645  RSUExampleScenario.node[91].veinsmobility  co2emission  ETV
vector 650  RSUExampleScenario.node[92].veinsmobility  speed  ETV
vector 651  RSUExampleScenario.node[92].veinsmobility  acceleration  ETV
vector 652  RSUExampleScenario.node[92].veinsmobility  co2emission  ETV
vector 655  RSUExampleScenario.node[93].veinsmobility  posx  ETV
vector 656  RSUExampleScenario.node[93].veinsmobility  posy  ETV
vector 657  RSUExampleScenario.node[93].veinsmobility  speed  ETV
vector 658  RSUExampleScenario.node[93].veinsmobility  acceleration  ETV
vector 659  RSUExampleScenario.node[93].veinsmobility  co2emission  ETV
vector 662  RSUExampleScenario.node[94].veinsmobility  posx  ETV
vector 663  RSUExampleScenario.node[94].veinsmobility  posy  ETV
vector 664  RSUExampleScenario.node[94].veinsmobility  speed  ETV
vector 665  RSUExampleScenario.node[94].veinsmobility  acceleration  ETV
vector 666  RSUExampleScenario.node[94].veinsmobility  co2emission  ETV
vector 669  RSUExampleScenario.node[95].veinsmobility  posx  ETV
vector 670  RSUExampleScenario.node[95].veinsmobility  posy  ETV
vector 671  RSUExampleScenario.node[95].veinsmobility  speed  ETV
vector 672  RSUExampleScenario.node[95].veinsmobility  acceleration  ETV
vector 673  RSUExampleScenario.node[95].veinsmobility  co2emission  ETV
vector 676  RSUExampleScenario.node[96].veinsmobility  posx  ETV
vector 677  RSUExampleScenario.node[96].veinsmobility  posy  ETV
vector 678  RSUExampleScenario.node[96].veinsmobility  speed  ETV
vector 679  RSUExampleScenario.node[96].veinsmobility  acceleration  ETV
vector 680  RSUExampleScenario.node[96].veinsmobility  co2emission  ETV
vector 683  RSUExampleScenario.node[97].veinsmobility  posx  ETV
vector 684  RSUExampleScenario.node[97].veinsmobility  posy  ETV
vector 685  RSUExampleScenario.node[97].veinsmobility  speed  ETV
vector 686  RSUExampleScenario.node[97].veinsmobility  acceleration  ETV
vector 687  RSUExampleScenario.node[97].veinsmobility  co2emission  ETV
vector 690  RSUExampleScenario.node[98].veinsmobility  posx  ETV
vector 691  RSUExampleScenario.node[98].veinsmobility  posy  ETV
vector 692  RSUExampleScenario.node[98].veinsmobility  speed  ETV
vector 693  RSUExampleScenario.node[98].veinsmobility  acceleration  ETV
vector 694  RSUExampleScenario.node[98].veinsmobility  co2emission  ETV
vector 697  RSUExampleScenario.node[99].veinsmobility  posx  ETV
vector 698  RSUExampleScenario.node[99].veinsmobility  posy  ETV
vector 699  RSUExampleScenario.node[99].veinsmobility  speed  ETV
vector 700  RSUExampleScenario.node[99].veinsmobility  acceleration  ETV
vector 701  RSUExampleScenario.node[99].veinsmobility  co2emission  ETV
vector 704  RSUExampleScenario.node[100].veinsmobility  posx  ETV
vector 705  RSUExampleScenario.node[100].veinsmobility  posy  ETV
vector 706  RSUExampleScenario.node[100].veinsmobility  speed  ETV
vector 711  RSUExampleScenario.node[101].veinsmobility  posx  ETV
vector 712  RSUExampleScenario.node[101].veinsmobility  posy  ETV
vector 707  RSUExampleScenario.node[100].veinsmobility  acceleration  ETV
vector 708  RSUExampleScenario.node[100].veinsmobility  co2emission  ETV
vector 713  RSUExampleScenario.node[101].veinsmobility  speed  ETV
vector 718  RSUExampleScenario.node[102].veinsmobility  posx  ETV
vector 719  RSUExampleScenario.node[102].veinsmobility  posy  ETV
vector 714  RSUExampleScenario.node[101].veinsmobility  acceleration  ETV
vector 715  RSUExampleScenario.node[101].veinsmobility  co2emission  ETV
vector 720  RSUExampleScenario.node[102].veinsmobility  speed  ETV
vector 725  RSUExampleScenario.node[103].veinsmobility  posx  ETV
vector 726  RSUExampleScenario.node[103].veinsmobility  posy  ETV
vector 721  RSUExampleScenario.node[102].veinsmobility  acceleration  ETV
vector 722  RSUExampleScenario.node[102].veinsmobility  co2emission  ETV
vector 727  RSUExampleScenario.node[103].veinsmobility  speed  ETV
vector 732  RSUExampleScenario.node[104].veinsmobility  posx  ETV
vector 733  RSUExampleScenario.node[104].veinsmobility  posy  ETV
vector 728  RSUExampleScenario.node[103].veinsmobility  acceleration  ETV
vector 729  RSUExampleScenario.node[103].veinsmobility  co2emission  ETV
vector 734  RSUExampleScenario.node[104].veinsmobility  speed  ETV
vector 739  RSUExampleScenario.node[105].veinsmobility  posx  ETV
vector 740  RSUExampleScenario.node[105].veinsmobility  posy  ETV
vector 735  RSUExampleScenario.node[104].veinsmobility  acceleration  ETV
vector 736  RSUExampleScenario.node[104].veinsmobility  co2emission  ETV
vector 741  RSUExampleScenario.node[105].veinsmobility  speed  ETV
vector 742  RSUExampleScenario.node[105].veinsmobility  acceleration  ETV
vector 743  RSUExampleScenario.node[105].veinsmobility  co2emission  ETV
vector 746  RSUExampleScenario.node[106].veinsmobility  posx  ETV
vector 747  RSUExampleScenario.node[106].veinsmobility  posy  ETV
vector 748  RSUExampleScenario.node[106].veinsmobility  speed  ETV
vector 753  RSUExampleScenario.node[107].veinsmobility  posx  ETV
vector 754  RSUExampleScenario.node[107].veinsmobility  posy  ETV
vector 749  RSUExampleScenario.node[106].veinsmobility  acceleration  ETV
vector 750  RSUExampleScenario.node[106].veinsmobility  co2emission  ETV
vector 755  RSUExampleScenario.node[107].veinsmobility  speed  ETV
vector 760  RSUExampleScenario.node[108].veinsmobility  posx  ETV
vector 761  RSUExampleScenario.node[108].veinsmobility  posy  ETV
vector 756  RSUExampleScenario.node[107].veinsmobility  acceleration  ETV
vector 757  RSUExampleScenario.node[107].veinsmobility  co2emission  ETV
vector 762  RSUExampleScenario.node[108].veinsmobility  speed  ETV
vector 767  RSUExampleScenario.node[109].veinsmobility  posx  ETV
vector 768  RSUExampleScenario.node[109].veinsmobility  posy  ETV
vector 763  RSUExampleScenario.node[108].veinsmobility  acceleration  ETV
vector 764  RSUExampleScenario.node[108].veinsmobility  co2emission  ETV
vector 769  RSUExampleScenario.node[109].veinsmobility  speed  ETV
vector 774  RSUExampleScenario.node[110].veinsmobility  posx  ETV
vector 775  RSUExampleScenario.node[110].veinsmobility  posy  ETV
vector 770  RSUExampleScenario.node[109].veinsmobility  acceleration  ETV
vector 771  RSUExampleScenario.node[109].veinsmobility  co2emission  ETV
vector 776  RSUExampleScenario.node[110].veinsmobility  speed  ETV
vector 777  RSUExampleScenario.node[110].veinsmobility  acceleration  ETV
vector 778  RSUExampleScenario.node[110].veinsmobility  co2emission  ETV
vector 781  RSUExampleScenario.node[111].veinsmobility  posx  ETV
vector 782  RSUExampleScenario.node[111].veinsmobility  posy  ETV
vector 783  RSUExampleScenario.node[111].veinsmobility  speed  ETV
vector 788  RSUExampleScenario.node[112].veinsmobility  posx  ETV
vector 789  RSUExampleScenario.node[112].veinsmobility  posy  ETV
vector 784  RSUExampleScenario.node[111].veinsmobility  acceleration  ETV
vector 785  RSUExampleScenario.node[111].veinsmobility  co2emission  ETV
vector 790  RSUExampleScenario.node[112].veinsmobility  speed  ETV
vector 795  RSUExampleScenario.node[113].veinsmobility  posx  ETV
vector 796  RSUExampleScenario.node[113].veinsmobility  posy  ETV
vector 791  RSUExampleScenario.node[112].veinsmobility  acceleration  ETV
vector 792  RSUExampleScenario.node[112].veinsmobility  co2emission  ETV
vector 797  RSUExampleScenario.node[113].veinsmobility  speed  ETV
vector 802  RSUExampleScenario.node[114].veinsmobility  posx  ETV
vector 803  RSUExampleScenario.node[114].veinsmobility  posy  ETV
vector 798  RSUExampleScenario.node[113].veinsmobility  acceleration  ETV
vector 799  RSUExampleScenario.node[113].veinsmobility  co2emission  ETV
vector 804  RSUExampleScenario.node[114].veinsmobility  speed  ETV
vector 805  RSUExampleScenario.node[114].veinsmobility  acceleration  ETV
vector 806  RSUExampleScenario.node[114].veinsmobility  co2emission  ETV
vector 809  RSUExampleScenario.node[115].veinsmobility  posx  ETV
vector 810  RSUExampleScenario.node[115].veinsmobility  posy  ETV
vector 811  RSUExampleScenario.node[115].veinsmobility  speed  ETV
vector 816  RSUExampleScenario.node[116].veinsmobility  posx  ETV
vector 817  RSUExampleScenario.node[116].veinsmobility  posy  ETV
vector 812  RSUExampleScenario.node[115].veinsmobility  acceleration  ETV
vector 813  RSUExampleScenario.node[115].veinsmobility  co2emission  ETV
vector 818  RSUExampleScenario.node[116].veinsmobility  speed  ETV
vector 819  RSUExampleScenario.node[116].veinsmobility  acceleration  ETV
vector 820  RSUExampleScenario.node[116].veinsmobility  co2emission  ETV
vector 823  RSUExampleScenario.node[117].veinsmobility  posx  ETV
vector 824  RSUExampleScenario.node[117].veinsmobility  posy  ETV
vector 825  RSUExampleScenario.node[117].veinsmobility  speed  ETV
vector 830  RSUExampleScenario.node[118].veinsmobility  posx  ETV
vector 831  RSUExampleScenario.node[118].veinsmobility  posy  ETV
vector 826  RSUExampleScenario.node[117].veinsmobility  acceleration  ETV
vector 827  RSUExampleScenario.node[117].veinsmobility  co2emission  ETV
vector 832  RSUExampleScenario.node[118].veinsmobility  speed  ETV
vector 833  RSUExampleScenario.node[118].veinsmobility  acceleration  ETV
vector 834  RSUExampleScenario.node[118].veinsmobility  co2emission  ETV
vector 837  RSUExampleScenario.node[119].veinsmobility  posx  ETV
vector 838  RSUExampleScenario.node[119].veinsmobility  posy  ETV
vector 839  RSUExampleScenario.node[119].veinsmobility  speed  ETV
vector 844  RSUExampleScenario.node[120].veinsmobility  posx  ETV
vector 845  RSUExampleScenario.node[120].veinsmobility  posy  ETV
vector 840  RSUExampleScenario.node[119].veinsmobility  acceleration  ETV
vector 841  RSUExampleScenario.node[119].veinsmobility  co2emission  ETV
vector 846  RSUExampleScenario.node[120].veinsmobility  speed  ETV
vector 847  RSUExampleScenario.node[120].veinsmobility  acceleration  ETV
vector 848  RSUExampleScenario.node[120].veinsmobility  co2emission  ETV
vector 851  RSUExampleScenario.node[121].veinsmobility  posx  ETV
vector 852  RSUExampleScenario.node[121].veinsmobility  posy  ETV
vector 853  RSUExampleScenario.node[121].veinsmobility  speed  ETV
vector 854  RSUExampleScenario.node[121].veinsmobility  acceleration  ETV
vector 855  RSUExampleScenario.node[121].veinsmobility  co2emission  ETV
vector 858  RSUExampleScenario.node[122].veinsmobility  posx  ETV
vector 859  RSUExampleScenario.node[122].veinsmobility  posy  ETV
vector 860  RSUExampleScenario.node[122].veinsmobility  speed  ETV
vector 865  RSUExampleScenario.node[123].veinsmobility  posx  ETV
vector 866  RSUExampleScenario.node[123].veinsmobility  posy  ETV
vector 861  RSUExampleScenario.node[122].veinsmobility  acceleration  ETV
vector 862  RSUExampleScenario.node[122].veinsmobility  co2emission  ETV
vector 867  RSUExampleScenario.node[123].veinsmobility  speed  ETV
vector 868  RSUExampleScenario.node[123].veinsmobility  acceleration  ETV
vector 869  RSUExampleScenario.node[123].veinsmobility  co2emission  ETV
vector 872  RSUExampleScenario.node[124].veinsmobility  posx  ETV
vector 873  RSUExampleScenario.node[124].veinsmobility  posy  ETV
vector 874  RSUExampleScenario.node[124].veinsmobility  speed  ETV
vector 875  RSUExampleScenario.node[124].veinsmobility  acceleration  ETV
vector 876  RSUExampleScenario.node[124].veinsmobility  co2emission  ETV
vector 879  RSUExampleScenario.node[125].veinsmobility  posx  ETV
vector 880  RSUExampleScenario.node[125].veinsmobility  posy  ETV
vector 881  RSUExampleScenario.node[125].veinsmobility  speed  ETV
vector 882  RSUExampleScenario.node[125].veinsmobility  acceleration  ETV
vector 883  RSUExampleScenario.node[125].veinsmobility  co2emission  ETV
vector 886  RSUExampleScenario.node[126].veinsmobility  posx  ETV
vector 887  RSUExampleScenario.node[126].veinsmobility  posy  ETV
vector 888  RSUExampleScenario.node[126].veinsmobility  speed  ETV
vector 889  RSUExampleScenario.node[126].veinsmobility  acceleration  ETV
vector 890  RSUExampleScenario.node[126].veinsmobility  co2emission  ETV
vector 893  RSUExampleScenario.node[127].veinsmobility  posx  ETV
vector 894  RSUExampleScenario.node[127].veinsmobility  posy  ETV
vector 895  RSUExampleScenario.node[127].veinsmobility  speed  ETV
vector 900  RSUExampleScenario.node[128].veinsmobility  posx  ETV
vector 901  RSUExampleScenario.node[128].veinsmobility  posy  ETV
vector 896  RSUExampleScenario.node[127].veinsmobility  acceleration  ETV
vector 897  RSUExampleScenario.node[127].veinsmobility  co2emission  ETV
vector 902  RSUExampleScenario.node[128].veinsmobility  speed  ETV
vector 903  RSUExampleScenario.node[128].veinsmobility  acceleration  ETV
vector 904  RSUExampleScenario.node[128].veinsmobility  co2emission  ETV
vector 907  RSUExampleScenario.node[129].veinsmobility  posx  ETV
vector 908  RSUExampleScenario.node[129].veinsmobility  posy  ETV
vector 909  RSUExampleScenario.node[129].veinsmobility  speed  ETV
vector 910  RSUExampleScenario.node[129].veinsmobility  acceleration  ETV
vector 911  RSUExampleScenario.node[129].veinsmobility  co2emission  ETV
vector 914  RSUExampleScenario.node[130].veinsmobility  posx  ETV
vector 915  RSUExampleScenario.node[130].veinsmobility  posy  ETV
vector 916  RSUExampleScenario.node[130].veinsmobility  speed  ETV
vector 921  RSUExampleScenario.node[131].veinsmobility  posx  ETV
vector 922  RSUExampleScenario.node[131].veinsmobility  posy  ETV
vector 917  RSUExampleScenario.node[130].veinsmobility  acceleration  ETV
vector 918  RSUExampleScenario.node[130].veinsmobility  co2emission  ETV
vector 923  RSUExampleScenario.node[131].veinsmobility  speed  ETV
vector 924  RSUExampleScenario.node[131].veinsmobility  acceleration  ETV
vector 925  RSUExampleScenario.node[131].veinsmobility  co2emission  ETV
vector 928  RSUExampleScenario.node[132].veinsmobility  posx  ETV
vector 929  RSUExampleScenario.node[132].veinsmobility  posy  ETV
vector 930  RSUExampleScenario.node[132].veinsmobility  speed  ETV
vector 931  RSUExampleScenario.node[132].veinsmobility  acceleration  ETV
vector 932  RSUExampleScenario.node[132].veinsmobility  co2emission  ETV
vector 935  RSUExampleScenario.node[133].veinsmobility  posx  ETV
vector 936  RSUExampleScenario.node[133].veinsmobility  posy  ETV
vector 937  RSUExampleScenario.node[133].veinsmobility  speed  ETV
vector 938  RSUExampleScenario.node[133].veinsmobility  acceleration  ETV
vector 939  RSUExampleScenario.node[133].veinsmobility  co2emission  ETV
vector 942  RSUExampleScenario.node[134].veinsmobility  posx  ETV
vector 943  RSUExampleScenario.node[134].veinsmobility  posy  ETV
vector 944  RSUExampleScenario.node[134].veinsmobility  speed  ETV
vector 949  RSUExampleScenario.node[135].veinsmobility  posx  ETV
vector 950  RSUExampleScenario.node[135].veinsmobility  posy  ETV
vector 945  RSUExampleScenario.node[134].veinsmobility  acceleration  ETV
vector 946  RSUExampleScenario.node[134].veinsmobility  co2emission  ETV
vector 951  RSUExampleScenario.node[135].veinsmobility  speed  ETV
vector 952  RSUExampleScenario.node[135].veinsmobility  acceleration  ETV
vector 953  RSUExampleScenario.node[135].veinsmobility  co2emission  ETV
vector 956  RSUExampleScenario.node[136].veinsmobility  posx  ETV
vector 957  RSUExampleScenario.node[136].veinsmobility  posy  ETV
vector 958  RSUExampleScenario.node[136].veinsmobility  speed  ETV
vector 959  RSUExampleScenario.node[136].veinsmobility  acceleration  ETV
vector 960  RSUExampleScenario.node[136].veinsmobility  co2emission  ETV
vector 963  RSUExampleScenario.node[137].veinsmobility  posx  ETV
vector 964  RSUExampleScenario.node[137].veinsmobility  posy  ETV
vector 965  RSUExampleScenario.node[137].veinsmobility  speed  ETV
vector 966  RSUExampleScenario.node[137].veinsmobility  acceleration  ETV
vector 967  RSUExampleScenario.node[137].veinsmobility  co2emission  ETV
vector 970  RSUExampleScenario.node[138].veinsmobility  posx  ETV
vector 971  RSUExampleScenario.node[138].veinsmobility  posy  ETV
vector 972  RSUExampleScenario.node[138].veinsmobility  speed  ETV
vector 973  RSUExampleScenario.node[138].veinsmobility  acceleration  ETV
vector 974  RSUExampleScenario.node[138].veinsmobility  co2emission  ETV
vector 977  RSUExampleScenario.node[139].veinsmobility  posx  ETV
vector 978  RSUExampleScenario.node[139].veinsmobility  posy  ETV
vector 979  RSUExampleScenario.node[139].veinsmobility  speed  ETV
8	50733 7143 4 28603 3 328 326 0.973 33.37627103736 912.69200864236 7831.4031216801
7	57876 7244 4 28603 3 328 326 -4.5 5.171069820486 2.4065143155771 740.05954000821
6	65120 6963 3 28603 2 328 327 0 27.768710480146 3398.879767246 61596.722187312
5	72083 8570 2 28603 1 328 328 1217.1325764926 2120.7953938423 504309.90547405 794743809.84702
4	80653 8648 2 28603 1 328 328 210.10154649953 2450.4278615726 404971.93511679 696724354.80138
vector 980  RSUExampleScenario.node[139].veinsmobility  acceleration  ETV
vector 981  RSUExampleScenario.node[139].veinsmobility  co2emission  ETV
vector 984  RSUExampleScenario.node[140].veinsmobility  posx  ETV
vector 985  RSUExampleScenario.node[140].veinsmobility  posy  ETV
vector 986  RSUExampleScenario.node[140].veinsmobility  speed  ETV
vector 987  RSUExampleScenario.node[140].veinsmobility  acceleration  ETV
vector 988  RSUExampleScenario.node[140].veinsmobility  co2emission  ETV
vector 991  RSUExampleScenario.node[141].veinsmobility  posx  ETV
vector 992  RSUExampleScenario.node[141].veinsmobility  posy  ETV
vector 993  RSUExampleScenario.node[141].veinsmobility  speed  ETV
vector 994  RSUExampleScenario.node[141].veinsmobility  acceleration  ETV
vector 995  RSUExampleScenario.node[141].veinsmobility  co2emission  ETV
vector 998  RSUExampleScenario.node[142].veinsmobility  posx  ETV
vector 999  RSUExampleScenario.node[142].veinsmobility  posy  ETV
vector 1000  RSUExampleScenario.node[142].veinsmobility  speed  ETV
vector 1001  RSUExampleScenario.node[142].veinsmobility  acceleration  ETV
vector 1002  RSUExampleScenario.node[142].veinsmobility  co2emission  ETV
vector 1005  RSUExampleScenario.node[143].veinsmobility  posx  ETV
vector 1006  RSUExampleScenario.node[143].veinsmobility  posy  ETV
vector 1007  RSUExampleScenario.node[143].veinsmobility  speed  ETV
vector 1008  RSUExampleScenario.node[143].veinsmobility  acceleration  ETV
vector 1009  RSUExampleScenario.node[143].veinsmobility  co2emission  ETV
15	90840 8822 6 35607 5 398 394 0.973 15.069549340392 895.92864570834 3960.2293153647
14	99662 9022 6 35607 5 398 394 -1.5 1.884232849053 4.6955235178901 319.24534685212
13	108684 9084 5 35607 4 398 395 0 27.778188040318 3402.7511338128 55698.780104891
12	117768 10955 4 35607 3 398 396 1216.3045029091 2120.893814832 625897.55868686 1023607621.0085
11	128723 10895 4 35607 3 398 396 203.84055066213 2450.3140188782 525699.83639611 955534513.79308
22	139618 8795 8 35632 7 404 398 0.973 30.813682513993 972.51374978124 6872.8885175748
21	148413 9074 8 35632 7 404 398 -4.5 5.0165304572117 5.4636421789052 714.54201614238
20	157487 8779 7 35632 6 404 399 0 27.777677725879 3398.6723705801 58751.172478711
19	166266 11093 6 35632 5 404 400 1216.6280848803 2120.5535120554 630494.37501567 1029999014.6598
18	177359 11049 6 35632 5 404 400 211.73287633061 2450.0954562895 524664.05367981 939542860.20834
29	188408 8789 10 35644 9 407 399 -0.59656284061144 30.360151436556 1012.5747137893 7629.3269624644
28	197197 9090 10 35644 9 407 399 -4.5 5.1017067492299 5.8946151937783 841.78500872674
27	206287 8830 9 35644 8 407 400 0 27.750909077181 3399.2407468076 58407.009341742
26	215117 11127 8 35644 7 407 401 1216.2829055339 2120.8036144441 630819.38460919 1028740012.7158
25	226244 11133 8 35644 7 407 401 209.45660305384 2450.3857637221 543510.9403195 966259230.49147
36	237377 9003 11 35691 10 417 408 0.973 29.783652142168 998.10449427559 7270.402443569
35	246380 9399 11 35691 10 417 408 -4.5 5.2880503980914 5.3565853205388 783.89025709991
34	255779 9098 10 35691 9 417 409 0 27.75182667057 3396.7293220726 57807.072638494
33	264877 11400 9 35691 8 417 410 1217.4486178812 2120.3836950734 644356.70634134 1049010805.3143
32	276277 11395 9 35691 8 417 410 210.66962424666 2450.4834751619 554998.72214944 984239523.26762
78	287672 8917 22 35728 21 425 405 -0.20003467947189 29.044202106508 974.18395022735 7934.4952443488
77	296589 9386 22 35728 21 425 405 -4.5 5.2636679013819 2.7943443952956 729.68737485074
76	305975 8994 21 35728 20 425 406 0 27.751222434836 3396.16714862 58753.848212056
75	314969 11365 20 35728 19 425 407 1216.2774043893 2120.3821691675 643917.42443887 1057206024.179
74	326334 11356 20 35728 19 425 407 211.89089323254 2450.4855983388 569206.83146424 1030911951.7085
50	337690 9715 15 35808 14 447 434 0.973 13.87747216524 920.54092456723 3956.5432680315
49	347405 10314 15 35808 14 447 434 -1.5 1.941955567383 4.324216147423 308.60834246137
48	357719 10210 14 35808 13 447 435 0 27.779343798762 3398.6074724101 55200.53193281
47	367929 12161 13 35808 12 447 436 1216.8815312097 2120.9336745767 686110.61191013 1117664693.0188
46	380090 12090 13 35808 12 447 436 204.43478617875 2450.4068745655 613065.11448795 1096605128.1746
vector 1012  RSUExampleScenario.node[144].veinsmobility  posx  ETV
vector 1013  RSUExampleScenario.node[144].veinsmobility  posy  ETV
vector 1019  RSUExampleScenario.node[145].veinsmobility  posx  ETV
vector 1020  RSUExampleScenario.node[145].veinsmobility  posy  ETV
vector 1014  RSUExampleScenario.node[144].veinsmobility  speed  ETV
vector 1026  RSUExampleScenario.node[146].veinsmobility  posx  ETV
vector 1027  RSUExampleScenario.node[146].veinsmobility  posy  ETV
vector 1015  RSUExampleScenario.node[144].veinsmobility  acceleration  ETV
vector 1016  RSUExampleScenario.node[144].veinsmobility  co2emission  ETV
vector 1021  RSUExampleScenario.node[145].veinsmobility  speed  ETV
vector 1022  RSUExampleScenario.node[145].veinsmobility  acceleration  ETV
vector 1023  RSUExampleScenario.node[145].veinsmobility  co2emission  ETV
vector 1028  RSUExampleScenario.node[146].veinsmobility  speed  ETV
vector 1033  RSUExampleScenario.node[147].veinsmobility  posx  ETV
vector 1034  RSUExampleScenario.node[147].veinsmobility  posy  ETV
vector 1029  RSUExampleScenario.node[146].veinsmobility  acceleration  ETV
vector 1030  RSUExampleScenario.node[146].veinsmobility  co2emission  ETV
vector 1040  RSUExampleScenario.node[148].veinsmobility  posx  ETV
vector 1041  RSUExampleScenario.node[148].veinsmobility  posy  ETV
vector 1035  RSUExampleScenario.node[147].veinsmobility  speed  ETV
vector 1036  RSUExampleScenario.node[147].veinsmobility  acceleration  ETV
vector 1037  RSUExampleScenario.node[147].veinsmobility  co2emission  ETV
vector 1042  RSUExampleScenario.node[148].veinsmobility  speed  ETV
vector 1047  RSUExampleScenario.node[149].veinsmobility  posx  ETV
vector 1048  RSUExampleScenario.node[149].veinsmobility  posy  ETV
vector 1043  RSUExampleScenario.node[148].veinsmobility  acceleration  ETV
vector 1044  RSUExampleScenario.node[148].veinsmobility  co2emission  ETV
vector 1054  RSUExampleScenario.node[150].veinsmobility  posx  ETV
vector 1055  RSUExampleScenario.node[150].veinsmobility  posy  ETV
vector 1049  RSUExampleScenario.node[149].veinsmobility  speed  ETV
vector 1061  RSUExampleScenario.node[151].veinsmobility  posx  ETV
vector 1062  RSUExampleScenario.node[151].veinsmobility  posy  ETV
vector 1050  RSUExampleScenario.node[149].veinsmobility  acceleration  ETV
vector 1051  RSUExampleScenario.node[149].veinsmobility  co2emission  ETV
vector 1056  RSUExampleScenario.node[150].veinsmobility  speed  ETV
vector 1057  RSUExampleScenario.node[150].veinsmobility  acceleration  ETV
vector 1058  RSUExampleScenario.node[150].veinsmobility  co2emission  ETV
vector 1063  RSUExampleScenario.node[151].veinsmobility  speed  ETV
vector 1068  RSUExampleScenario.node[152].veinsmobility  posx  ETV
vector 1069  RSUExampleScenario.node[152].veinsmobility  posy  ETV
vector 1064  RSUExampleScenario.node[151].veinsmobility  acceleration  ETV
vector 1065  RSUExampleScenario.node[151].veinsmobility  co2emission  ETV
vector 1075  RSUExampleScenario.node[153].veinsmobility  posx  ETV
vector 1076  RSUExampleScenario.node[153].veinsmobility  posy  ETV
vector 1070  RSUExampleScenario.node[152].veinsmobility  speed  ETV
vector 1071  RSUExampleScenario.node[152].veinsmobility  acceleration  ETV
vector 1072  RSUExampleScenario.node[152].veinsmobility  co2emission  ETV
vector 1077  RSUExampleScenario.node[153].veinsmobility  speed  ETV
vector 1082  RSUExampleScenario.node[154].veinsmobility  posx  ETV
vector 1083  RSUExampleScenario.node[154].veinsmobility  posy  ETV
vector 1078  RSUExampleScenario.node[153].veinsmobility  acceleration  ETV
vector 1079  RSUExampleScenario.node[153].veinsmobility  co2emission  ETV
vector 1089  RSUExampleScenario.node[155].veinsmobility  posx  ETV
vector 1090  RSUExampleScenario.node[155].veinsmobility  posy  ETV
vector 1084  RSUExampleScenario.node[154].veinsmobility  speed  ETV
vector 1096  RSUExampleScenario.node[156].veinsmobility  posx  ETV
vector 1097  RSUExampleScenario.node[156].veinsmobility  posy  ETV
vector 1085  RSUExampleScenario.node[154].veinsmobility  acceleration  ETV
vector 1086  RSUExampleScenario.node[154].veinsmobility  co2emission  ETV
vector 1091  RSUExampleScenario.node[155].veinsmobility  speed  ETV
vector 1092  RSUExampleScenario.node[155].veinsmobility  acceleration  ETV
vector 1093  RSUExampleScenario.node[155].veinsmobility  co2emission  ETV
vector 1098  RSUExampleScenario.node[156].veinsmobility  speed  ETV
vector 1103  RSUExampleScenario.node[157].veinsmobility  posx  ETV
vector 1104  RSUExampleScenario.node[157].veinsmobility  posy  ETV
vector 1099  RSUExampleScenario.node[156].veinsmobility  acceleration  ETV
vector 1100  RSUExampleScenario.node[156].veinsmobility  co2emission  ETV
vector 1110  RSUExampleScenario.node[158].veinsmobility  posx  ETV
vector 1111  RSUExampleScenario.node[158].veinsmobility  posy  ETV
vector 1105  RSUExampleScenario.node[157].veinsmobility  speed  ETV
vector 1106  RSUExampleScenario.node[157].veinsmobility  acceleration  ETV
vector 1107  RSUExampleScenario.node[157].veinsmobility  co2emission  ETV
vector 1112  RSUExampleScenario.node[158].veinsmobility  speed  ETV
vector 1117  RSUExampleScenario.node[159].veinsmobility  posx  ETV
vector 1118  RSUExampleScenario.node[159].veinsmobility  posy  ETV
vector 1113  RSUExampleScenario.node[158].veinsmobility  acceleration  ETV
vector 1114  RSUExampleScenario.node[158].veinsmobility  co2emission  ETV
vector 1124  RSUExampleScenario.node[160].veinsmobility  posx  ETV
vector 1125  RSUExampleScenario.node[160].veinsmobility  posy  ETV
vector 1119  RSUExampleScenario.node[159].veinsmobility  speed  ETV
vector 1131  RSUExampleScenario.node[161].veinsmobility  posx  ETV
vector 1132  RSUExampleScenario.node[161].veinsmobility  posy  ETV
vector 1120  RSUExampleScenario.node[159].veinsmobility  acceleration  ETV
vector 1121  RSUExampleScenario.node[159].veinsmobility  co2emission  ETV
vector 1126  RSUExampleScenario.node[160].veinsmobility  speed  ETV
vector 1127  RSUExampleScenario.node[160].veinsmobility  acceleration  ETV
vector 1128  RSUExampleScenario.node[160].veinsmobility  co2emission  ETV
vector 1133  RSUExampleScenario.node[161].veinsmobility  speed  ETV
vector 1138  RSUExampleScenario.node[162].veinsmobility  posx  ETV
vector 1139  RSUExampleScenario.node[162].veinsmobility  posy  ETV
vector 1134  RSUExampleScenario.node[161].veinsmobility  acceleration  ETV
vector 1135  RSUExampleScenario.node[161].veinsmobility  co2emission  ETV
vector 1145  RSUExampleScenario.node[163].veinsmobility  posx  ETV
vector 1146  RSUExampleScenario.node[163].veinsmobility  posy  ETV
vector 1140  RSUExampleScenario.node[162].veinsmobility  speed  ETV
vector 1141  RSUExampleScenario.node[162].veinsmobility  acceleration  ETV
vector 1142  RSUExampleScenario.node[162].veinsmobility  co2emission  ETV
vector 1147  RSUExampleScenario.node[163].veinsmobility  speed  ETV
vector 1152  RSUExampleScenario.node[164].veinsmobility  posx  ETV
vector 1153  RSUExampleScenario.node[164].veinsmobility  posy  ETV
vector 1148  RSUExampleScenario.node[163].veinsmobility  acceleration  ETV
vector 1149  RSUExampleScenario.node[163].veinsmobility  co2emission  ETV
vector 1159  RSUExampleScenario.node[165].veinsmobility  posx  ETV
vector 1160  RSUExampleScenario.node[165].veinsmobility  posy  ETV
vector 1154  RSUExampleScenario.node[164].veinsmobility  speed  ETV
vector 1166  RSUExampleScenario.node[166].veinsmobility  posx  ETV
vector 1167  RSUExampleScenario.node[166].veinsmobility  posy  ETV
vector 1155  RSUExampleScenario.node[164].veinsmobility  acceleration  ETV
vector 1156  RSUExampleScenario.node[164].veinsmobility  co2emission  ETV
vector 1161  RSUExampleScenario.node[165].veinsmobility  speed  ETV
vector 1162  RSUExampleScenario.node[165].veinsmobility  acceleration  ETV
vector 1163  RSUExampleScenario.node[165].veinsmobility  co2emission  ETV
vector 1168  RSUExampleScenario.node[166].veinsmobility  speed  ETV
vector 1173  RSUExampleScenario.node[167].veinsmobility  posx  ETV
vector 1174  RSUExampleScenario.node[167].veinsmobility  posy  ETV
vector 1169  RSUExampleScenario.node[166].veinsmobility  acceleration  ETV
vector 1170  RSUExampleScenario.node[166].veinsmobility  co2emission  ETV
vector 1180  RSUExampleScenario.node[168].veinsmobility  posx  ETV
vector 1181  RSUExampleScenario.node[168].veinsmobility  posy  ETV
vector 1175  RSUExampleScenario.node[167].veinsmobility  speed  ETV
vector 1176  RSUExampleScenario.node[167].veinsmobility  acceleration  ETV
vector 1177  RSUExampleScenario.node[167].veinsmobility  co2emission  ETV
vector 1182  RSUExampleScenario.node[168].veinsmobility  speed  ETV
vector 1187  RSUExampleScenario.node[169].veinsmobility  posx  ETV
vector 1188  RSUExampleScenario.node[169].veinsmobility  posy  ETV
vector 1183  RSUExampleScenario.node[168].veinsmobility  acceleration  ETV
vector 1184  RSUExampleScenario.node[168].veinsmobility  co2emission  ETV
vector 1194  RSUExampleScenario.node[170].veinsmobility  posx  ETV
vector 1195  RSUExampleScenario.node[170].veinsmobility  posy  ETV
vector 1189  RSUExampleScenario.node[169].veinsmobility  speed  ETV
vector 1201  RSUExampleScenario.node[171].veinsmobility  posx  ETV
vector 1202  RSUExampleScenario.node[171].veinsmobility  posy  ETV
vector 1190  RSUExampleScenario.node[169].veinsmobility  acceleration  ETV
vector 1191  RSUExampleScenario.node[169].veinsmobility  co2emission  ETV
vector 1196  RSUExampleScenario.node[170].veinsmobility  speed  ETV
vector 1197  RSUExampleScenario.node[170].veinsmobility  acceleration  ETV
vector 1198  RSUExampleScenario.node[170].veinsmobility  co2emission  ETV
vector 1203  RSUExampleScenario.node[171].veinsmobility  speed  ETV
vector 1208  RSUExampleScenario.node[172].veinsmobility  posx  ETV
vector 1209  RSUExampleScenario.node[172].veinsmobility  posy  ETV
vector 1204  RSUExampleScenario.node[171].veinsmobility  acceleration  ETV
vector 1205  RSUExampleScenario.node[171].veinsmobility  co2emission  ETV
vector 1215  RSUExampleScenario.node[173].veinsmobility  posx  ETV
vector 1216  RSUExampleScenario.node[173].veinsmobility  posy  ETV
vector 1210  RSUExampleScenario.node[172].veinsmobility  speed  ETV
vector 1211  RSUExampleScenario.node[172].veinsmobility  acceleration  ETV
vector 1212  RSUExampleScenario.node[172].veinsmobility  co2emission  ETV
vector 1217  RSUExampleScenario.node[173].veinsmobility  speed  ETV
vector 1222  RSUExampleScenario.node[174].veinsmobility  posx  ETV
vector 1223  RSUExampleScenario.node[174].veinsmobility  posy  ETV
vector 1218  RSUExampleScenario.node[173].veinsmobility  acceleration  ETV
vector 1219  RSUExampleScenario.node[173].veinsmobility  co2emission  ETV
vector 1224  RSUExampleScenario.node[174].veinsmobility  speed  ETV
vector 1229  RSUExampleScenario.node[175].veinsmobility  posx  ETV
vector 1230  RSUExampleScenario.node[175].veinsmobility  posy  ETV
vector 1225  RSUExampleScenario.node[174].veinsmobility  acceleration  ETV
vector 1226  RSUExampleScenario.node[174].veinsmobility  co2emission  ETV
vector 1236  RSUExampleScenario.node[176].veinsmobility  posx  ETV
vector 1237  RSUExampleScenario.node[176].veinsmobility  posy  ETV
vector 1231  RSUExampleScenario.node[175].veinsmobility  speed  ETV
vector 1232  RSUExampleScenario.node[175].veinsmobility  acceleration  ETV
vector 1233  RSUExampleScenario.node[175].veinsmobility  co2emission  ETV
vector 1238  RSUExampleScenario.node[176].veinsmobility  speed  ETV
vector 1243  RSUExampleScenario.node[177].veinsmobility  posx  ETV
vector 1244  RSUExampleScenario.node[177].veinsmobility  posy  ETV
vector 1239  RSUExampleScenario.node[176].veinsmobility  acceleration  ETV
vector 1240  RSUExampleScenario.node[176].veinsmobility  co2emission  ETV
vector 1245  RSUExampleScenario.node[177].veinsmobility  speed  ETV
vector 1250  RSUExampleScenario.node[178].veinsmobility  posx  ETV
vector 1251  RSUExampleScenario.node[178].veinsmobility  posy  ETV
vector 1246  RSUExampleScenario.node[177].veinsmobility  acceleration  ETV
vector 1247  RSUExampleScenario.node[177].veinsmobility  co2emission  ETV
vector 1257  RSUExampleScenario.node[179].veinsmobility  posx  ETV
vector 1258  RSUExampleScenario.node[179].veinsmobility  posy  ETV
vector 1252  RSUExampleScenario.node[178].veinsmobility  speed  ETV
vector 1253  RSUExampleScenario.node[178].veinsmobility  acceleration  ETV
vector 1254  RSUExampleScenario.node[178].veinsmobility  co2emission  ETV
vector 1259  RSUExampleScenario.node[179].veinsmobility  speed  ETV
vector 1264  RSUExampleScenario.node[180].veinsmobility  posx  ETV
vector 1265  RSUExampleScenario.node[180].veinsmobility  posy  ETV
vector 1260  RSUExampleScenario.node[179].veinsmobility  acceleration  ETV
vector 1261  RSUExampleScenario.node[179].veinsmobility  co2emission  ETV
vector 1266  RSUExampleScenario.node[180].veinsmobility  speed  ETV
vector 1271  RSUExampleScenario.node[181].veinsmobility  posx  ETV
vector 1272  RSUExampleScenario.node[181].veinsmobility  posy  ETV
vector 1267  RSUExampleScenario.node[180].veinsmobility  acceleration  ETV
vector 1268  RSUExampleScenario.node[180].veinsmobility  co2emission  ETV
92	405301 11069 26 48366 25 527 503 0.973 13.38536272628 1010.7264562615 4274.6384025975
91	416370 11751 26 48366 25 527 503 -1.5 1.8828668252996 3.4251807891676 337.00027251763
90	428121 11490 25 48366 24 527 504 0 27.772976816192 3395.4536815067 53266.910468219
89	439611 14210 24 48366 23 527 505 1218.5006354451 2120.8430251637 784539.6910624 1262413373.5088
88	453821 14218 24 48366 23 527 505 204.83219167439 2450.1846176332 630647.17121279 1116897967.1477
vector 1278  RSUExampleScenario.node[182].veinsmobility  posx  ETV
vector 1279  RSUExampleScenario.node[182].veinsmobility  posy  ETV
vector 1273  RSUExampleScenario.node[181].veinsmobility  speed  ETV
vector 1274  RSUExampleScenario.node[181].veinsmobility  acceleration  ETV
vector 1275  RSUExampleScenario.node[181].veinsmobility  co2emission  ETV
vector 1280  RSUExampleScenario.node[182].veinsmobility  speed  ETV
vector 1285  RSUExampleScenario.node[183].veinsmobility  posx  ETV
vector 1286  RSUExampleScenario.node[183].veinsmobility  posy  ETV
vector 1281  RSUExampleScenario.node[182].veinsmobility  acceleration  ETV
vector 1282  RSUExampleScenario.node[182].veinsmobility  co2emission  ETV
43	468741 11633 13 48377 12 530 519 0.973 28.913408316741 1134.0485642665 8076.2930248593
42	480374 12273 13 48377 12 530 519 -4.5 5.049555063554 4.9198582026036 858.68048664507
41	492647 11836 12 48377 11 530 520 0 27.763528873604 3405.7716912315 58349.660668313
40	504483 14579 11 48377 10 530 521 1217.019470104 2120.3819291405 791349.09706963 1244635863.9352
39	519062 14626 11 48377 10 530 521 205.19570084556 2450.3526944926 629103.75069071 1041336335.8066
vector 1287  RSUExampleScenario.node[183].veinsmobility  speed  ETV
vector 1292  RSUExampleScenario.node[184].veinsmobility  posx  ETV
vector 1293  RSUExampleScenario.node[184].veinsmobility  posy  ETV
vector 1288  RSUExampleScenario.node[183].veinsmobility  acceleration  ETV
vector 1289  RSUExampleScenario.node[183].veinsmobility  co2emission  ETV
99	534039 11383 28 48385 27 532 506 0.77427503412539 20.90393168049 1151.0566690829 7081.0810016574
98	545422 11837 28 48385 27 532 506 -4.5 5.1047917811593 6.1189185081979 938.64152416513
97	557259 11514 27 48385 26 532 507 0 27.775104928277 3404.2422771454 54799.324863893
96	568773 14311 26 48385 25 532 508 1216.3861398865 2120.6161878332 789027.75049207 1270692287.0873
95	583084 14300 26 48385 25 532 508 207.43986806448 2450.2129085162 685388.97839703 1206084461.2202
vector 1294  RSUExampleScenario.node[184].veinsmobility  speed  ETV
vector 1299  RSUExampleScenario.node[185].veinsmobility  posx  ETV
vector 1300  RSUExampleScenario.node[185].veinsmobility  posy  ETV
vector 1295  RSUExampleScenario.node[184].veinsmobility  acceleration  ETV
vector 1296  RSUExampleScenario.node[184].veinsmobility  co2emission  ETV
vector 1301  RSUExampleScenario.node[185].veinsmobility  speed  ETV
vector 1306  RSUExampleScenario.node[186].veinsmobility  posx  ETV
vector 1307  RSUExampleScenario.node[186].veinsmobility  posy  ETV
vector 1302  RSUExampleScenario.node[185].veinsmobility  acceleration  ETV
vector 1303  RSUExampleScenario.node[185].veinsmobility  co2emission  ETV
vector 1308  RSUExampleScenario.node[186].veinsmobility  speed  ETV
vector 1313  RSUExampleScenario.node[187].veinsmobility  posx  ETV
vector 1314  RSUExampleScenario.node[187].veinsmobility  posy  ETV
vector 1309  RSUExampleScenario.node[186].veinsmobility  acceleration  ETV
vector 1310  RSUExampleScenario.node[186].veinsmobility  co2emission  ETV
vector 1315  RSUExampleScenario.node[187].veinsmobility  speed  ETV
vector 1320  RSUExampleScenario.node[188].veinsmobility  posx  ETV
vector 1321  RSUExampleScenario.node[188].veinsmobility  posy  ETV
vector 1316  RSUExampleScenario.node[187].veinsmobility  acceleration  ETV
vector 1317  RSUExampleScenario.node[187].veinsmobility  co2emission  ETV
vector 1327  RSUExampleScenario.node[189].veinsmobility  posx  ETV
vector 1328  RSUExampleScenario.node[189].veinsmobility  posy  ETV
vector 1322  RSUExampleScenario.node[188].veinsmobility  speed  ETV
57	598990 11870 17 48426 16 541 526 0.973 23.313052489229 1127.0939243329 6218.4076100789
56	610860 12511 17 48426 16 541 526 -4.5 5.0188411980626 8.0421500915585 797.86946024633
55	623371 12102 16 48426 15 541 527 0 27.737601034408 3403.7452584604 56149.041301851
54	635473 14840 15 48426 14 541 528 1216.1898065172 2120.6620206097 801189.72893504 1262405886.6717
53	650313 14789 15 48426 14 541 528 208.07601347531 2450.0600857328 692002.38853974 1171164245.0943
vector 1323  RSUExampleScenario.node[188].veinsmobility  acceleration  ETV
vector 1324  RSUExampleScenario.node[188].veinsmobility  co2emission  ETV
vector 1329  RSUExampleScenario.node[189].veinsmobility  speed  ETV
vector 1334  RSUExampleScenario.node[190].veinsmobility  posx  ETV
vector 1335  RSUExampleScenario.node[190].veinsmobility  posy  ETV
vector 1330  RSUExampleScenario.node[189].veinsmobility  acceleration  ETV
vector 1331  RSUExampleScenario.node[189].veinsmobility  co2emission  ETV
vector 1336  RSUExampleScenario.node[190].veinsmobility  speed  ETV
vector 1341  RSUExampleScenario.node[191].veinsmobility  posx  ETV
vector 1342  RSUExampleScenario.node[191].veinsmobility  posy  ETV
vector 1337  RSUExampleScenario.node[190].veinsmobility  acceleration  ETV
vector 1338  RSUExampleScenario.node[190].veinsmobility  co2emission  ETV
vector 1343  RSUExampleScenario.node[191].veinsmobility  speed  ETV
vector 1348  RSUExampleScenario.node[192].veinsmobility  posx  ETV
vector 1349  RSUExampleScenario.node[192].veinsmobility  posy  ETV
vector 1344  RSUExampleScenario.node[191].veinsmobility  acceleration  ETV
vector 1345  RSUExampleScenario.node[191].veinsmobility  co2emission  ETV
vector 1350  RSUExampleScenario.node[192].veinsmobility  speed  ETV
vector 1355  RSUExampleScenario.node[193].veinsmobility  posx  ETV
vector 1356  RSUExampleScenario.node[193].veinsmobility  posy  ETV
vector 1351  RSUExampleScenario.node[192].veinsmobility  acceleration  ETV
vector 1352  RSUExampleScenario.node[192].veinsmobility  co2emission  ETV
113	666655 12215 31 48453 30 549 520 0.973 24.979833062008 1134.3547738572 7551.4571207551
112	678870 12881 31 48453 30 549 520 -4.5 5.1769673301148 5.7192980849252 804.39373732521
111	691751 12384 30 48453 29 549 521 0 27.779721437907 3400.3259595199 56118.304452229
110	704135 15215 29 48453 28 549 522 1216.8513731426 2120.4880381208 803536.57430011 1285030888.0335
109	719350 15198 29 48453 28 549 522 209.36331980769 2450.6204846838 713201.22508131 1243427125.4893
vector 1357  RSUExampleScenario.node[193].veinsmobility  speed  ETV
vector 1362  RSUExampleScenario.node[194].veinsmobility  posx  ETV
vector 1363  RSUExampleScenario.node[194].veinsmobility  posy  ETV
vector 1358  RSUExampleScenario.node[193].veinsmobility  acceleration  ETV
vector 1359  RSUExampleScenario.node[193].veinsmobility  co2emission  ETV
vector 1364  RSUExampleScenario.node[194].veinsmobility  speed  ETV
vector 1369  RSUExampleScenario.node[195].veinsmobility  posx  ETV
vector 1370  RSUExampleScenario.node[195].veinsmobility  posy  ETV
vector 1365  RSUExampleScenario.node[194].veinsmobility  acceleration  ETV
vector 1366  RSUExampleScenario.node[194].veinsmobility  co2emission  ETV
vector 1371  RSUExampleScenario.node[195].veinsmobility  speed  ETV
vector 1376  RSUExampleScenario.node[196].veinsmobility  posx  ETV
vector 1377  RSUExampleScenario.node[196].veinsmobility  posy  ETV
vector 1372  RSUExampleScenario.node[195].veinsmobility  acceleration  ETV
vector 1373  RSUExampleScenario.node[195].veinsmobility  co2emission  ETV
vector 1378  RSUExampleScenario.node[196].veinsmobility  speed  ETV
vector 1383  RSUExampleScenario.node[197].veinsmobility  posx  ETV
vector 1384  RSUExampleScenario.node[197].veinsmobility  posy  ETV
vector 1379  RSUExampleScenario.node[196].veinsmobility  acceleration  ETV
vector 1380  RSUExampleScenario.node[196].veinsmobility  co2emission  ETV
vector 1385  RSUExampleScenario.node[197].veinsmobility  speed  ETV
vector 1386  RSUExampleScenario.node[197].veinsmobility  acceleration  ETV
vector 1387  RSUExampleScenario.node[197].veinsmobility  co2emission  ETV
vector 1390  RSUExampleScenario.node[198].veinsmobility  posx  ETV
vector 1391  RSUExampleScenario.node[198].veinsmobility  posy  ETV
vector 1392  RSUExampleScenario.node[198].veinsmobility  speed  ETV
vector 1397  RSUExampleScenario.node[199].veinsmobility  posx  ETV
vector 1398  RSUExampleScenario.node[199].veinsmobility  posy  ETV
vector 1393  RSUExampleScenario.node[198].veinsmobility  acceleration  ETV
vector 1394  RSUExampleScenario.node[198].veinsmobility  co2emission  ETV
vector 1399  RSUExampleScenario.node[199].veinsmobility  speed  ETV
vector 1404  RSUExampleScenario.node[200].veinsmobility  posx  ETV
vector 1405  RSUExampleScenario.node[200].veinsmobility  posy  ETV
vector 1400  RSUExampleScenario.node[199].veinsmobility  acceleration  ETV
vector 1401  RSUExampleScenario.node[199].veinsmobility  co2emission  ETV
120	737005 12529 33 48514 32 564 533 0.88016067054341 28.895666434228 1169.4604247062 8654.4950189955
119	749534 13303 33 48514 32 564 533 -4.5 5.0508205926232 4.0020936724577 888.52519041991
118	762837 12802 32 48514 31 564 534 0 27.750498325201 3392.412234363 55538.739811321
117	775639 15652 31 48514 30 564 535 1216.7791559566 2120.9527955605 821826.86818497 1310692115.5894
116	791291 15636 31 48514 30 564 535 211.84644604719 2450.4987197731 731394.87184365 1266136711.3867
vector 1406  RSUExampleScenario.node[200].veinsmobility  speed  ETV
vector 1411  RSUExampleScenario.node[201].veinsmobility  posx  ETV
vector 1412  RSUExampleScenario.node[201].veinsmobility  posy  ETV
vector 1407  RSUExampleScenario.node[200].veinsmobility  acceleration  ETV
vector 1408  RSUExampleScenario.node[200].veinsmobility  co2emission  ETV
vector 1413  RSUExampleScenario.node[201].veinsmobility  speed  ETV
85	807346 12348 23 48523 22 567 546 0.26928533225994 30.175226491725 1273.6835358908 9692.5079855948
84	819694 13143 23 48523 22 567 546 -4.5 5.0330712063611 5.994101225279 1214.8591201014
83	832837 12774 22 48523 21 567 547 0 27.749026262658 3405.5374782028 55654.346202974
82	845611 15434 21 48523 20 567 548 1216.5357154449 2120.4007445062 837177.70418823 1324040117.608
81	861045 15387 21 48523 20 567 548 208.79182259378 2450.384855778 755167.45323847 1284002815.1841
vector 1418  RSUExampleScenario.node[202].veinsmobility  posx  ETV
vector 1419  RSUExampleScenario.node[202].veinsmobility  posy  ETV
vector 1414  RSUExampleScenario.node[201].veinsmobility  acceleration  ETV
vector 1415  RSUExampleScenario.node[201].veinsmobility  co2emission  ETV
vector 1420  RSUExampleScenario.node[202].veinsmobility  speed  ETV
vector 1425  RSUExampleScenario.node[203].veinsmobility  posx  ETV
vector 1426  RSUExampleScenario.node[203].veinsmobility  posy  ETV
vector 1421  RSUExampleScenario.node[202].veinsmobility  acceleration  ETV
vector 1422  RSUExampleScenario.node[202].veinsmobility  co2emission  ETV
vector 1427  RSUExampleScenario.node[203].veinsmobility  speed  ETV
vector 1432  RSUExampleScenario.node[204].veinsmobility  posx  ETV
vector 1433  RSUExampleScenario.node[204].veinsmobility  posy  ETV
vector 1428  RSUExampleScenario.node[203].veinsmobility  acceleration  ETV
[...]
2471	33371308 21391 108542 123490 1669 2368 700 -2.6785016011886 5.2068314258289 9.0627696287671 502.52318009245
2470	33392699 20649 108540 123490 1668 2368 701 0 27.77764474215 3407.8575376996 54455.017294732
2469	33413348 23107 108536 123490 1667 2368 702 1217.5321593266 2120.9509615451 1245166.2949345 2262170431.2302
2468	33436455 23071 108536 123490 1667 2368 702 205.73089109571 2450.5630696516 1411208.8612447 3200128003.3363
2479	33459526 19338 108549 123492 1671 2370 700 0.973 27.971320076885 1235.9919323839 6441.1721256196
2478	33478864 21453 108549 123492 1671 2370 700 -2.8763889272697 5.0160412991631 8.4115090185737 564.72415115087
2477	33500317 20690 108546 123492 1670 2370 701 0 27.77546862321 3398.6404234094 54653.724389404
2476	33521007 23118 108542 123492 1669 2370 702 1217.203566731 2120.888212001 1244261.6303917 2259090185.9477
2475	33544125 23104 108542 123492 1669 2370 702 208.09324626159 2450.6158809287 1413031.3679002 3208207181.153
2486	33567229 19339 108557 123494 1674 2372 699 0.973 29.238263689215 1222.967379342 6183.4234045133
2485	33586568 21369 108557 123494 1674 2372 699 -4.5 5.0670645798776 6.8290939724595 592.21975535352
2484	33607937 20673 108553 123494 1673 2372 700 0 27.7776792493 3399.4320029562 54381.438198911
2483	33628610 23008 108552 123494 1672 2372 701 1216.9721354218 2120.9423017893 1240884.340371 2250220118.4066
2482	33651618 23088 108552 123494 1672 2372 701 210.01432165992 2450.5110157846 1412309.7796145 3209962093.4802
2493	33674706 19174 108567 123497 1677 2375 699 0.79954243647515 27.584414148024 1249.4946537005 6624.2902457695
2492	33693880 21396 108567 123497 1677 2375 699 -2.9116770323658 5.1757694249693 9.9790470792666 610.21172565505
2491	33715276 20675 108562 123497 1676 2375 700 0 27.775964444662 3403.8180523601 54921.080873407
2490	33735951 23094 108559 123497 1675 2375 701 1216.5385373421 2120.7528772522 1239262.4887932 2244534650.9947
2489	33759045 23083 108559 123497 1675 2375 701 206.90164900327 2450.3490165184 1412270.9448372 3213902322.2578
2500	33782128 19170 108574 123499 1680 2377 698 0.973 28.606268798008 1260.5537779273 6709.5026163711
2499	33801298 21304 108574 123499 1680 2377 698 -4.5 5.1154721850293 8.7634828465407 651.78993910635
2498	33822602 20640 108572 123499 1679 2377 699 0 27.778125079386 3403.2670364452 54674.904899036
2497	33843242 22998 108570 123499 1678 2377 700 1216.0801902106 2120.7060237983 1233406.7810033 2224908146.1206
2496	33866240 23062 108570 123499 1678 2377 700 209.0721292746 2450.4780786373 1411976.4860272 3217548616.6305
2507	33889302 19200 111887 123502 1687 2380 694 0.973 29.886101678725 1351.564193943 8980.7917957633
2506	33908502 21293 111887 123502 1687 2380 694 -3.5688302505471 5.1721986622858 11.832529018547 841.61008053999
2505	33929795 20628 111884 123502 1686 2380 695 0 27.776596205942 3408.6682265456 58186.724543298
2504	33950423 22938 111879 123502 1685 2380 696 1218.677344691 2120.9251099359 1220381.1350407 2190045413.5524
2503	33973361 22883 111879 123502 1685 2380 696 205.69930209976 2450.2562887626 1407340.8922664 3219647678.3172
2521	33996244 15754 112621 123516 1817 2393 577 0.973 30.117891683771 1294.2402038049 10936.235937249
2520	34011998 17015 112621 123516 1817 2393 577 -4.5 5.4611123848544 6.5006990061436 948.69631178402
2519	34029013 16553 112616 123516 1816 2393 578 0 27.749189834101 3405.6498404369 56624.559072791
2518	34045566 18996 112611 123516 1815 2393 579 1216.5020021219 2120.9296062775 1033807.2575335 1886939243.5993
2517	34064562 18958 112611 123516 1815 2393 579 207.3772928695 2450.3137177425 1172591.4826753 2619402776.1058
2514	34083520 15746 112616 123518 1816 2395 580 0.30347647670911 32.875681513915 1336.1301893464 12399.398193191
2513	34099266 17065 112616 123518 1816 2395 580 -4.5 4.9664523747365 2.35770018467 1107.8824794399
2512	34116331 16642 112611 123518 1815 2395 581 0 27.759921685476 3396.6301038604 55353.888196957
2511	34132973 19169 112606 123518 1814 2395 582 1218.7824958041 2120.9156458471 1053157.2656511 1947812620.4699
2510	34152142 19176 112606 123518 1814 2395 582 210.68302686489 2450.635871008 1188270.5117575 2669431160.7648
2605	34171318 16085 112678 123537 1836 2414 579 0.973 11.344474267979 1132.7149735987 4110.1751267288
2604	34187403 16852 112678 123537 1836 2414 579 -2.5 2.9430944119894 3.4066144540239 669.74821912101
2603	34204255 16440 112677 123537 1835 2414 580 0 16.669556470312 3663.6866175224 46449.735998689
2602	34220695 19083 112675 123537 1834 2414 581 1141.6733362675 1907.5626922557 832534.56878173 1224197837.294
2601	34239778 19131 112675 123537 1834 2414 581 207.3686520101 2415.1209408685 966677.62627791 1771994247.8882
2535	34258909 16616 112630 123548 1820 2425 606 0.973 31.981410927276 1281.3890657695 9830.746473074
2534	34275525 18127 112630 123548 1820 2425 606 -4.5 5.0678832653768 3.8201178219871 896.4862651463
2533	34293652 17646 112627 123548 1819 2425 607 0 27.733096318189 3401.2898895705 59232.489149046
2532	34311298 19981 112624 123548 1818 2425 608 1218.8710675994 2120.7273280229 1106774.9507729 2057948123.7124
2531	34331279 20002 112624 123548 1818 2425 608 210.62488937902 2450.2575526912 1269850.0626204 2898173233.4689
2528	34351281 16697 112627 123552 1819 2429 611 0.973 33.441646582622 1381.3558351706 12985.680236385
2527	34367978 18308 112627 123552 1819 2429 611 -4.5 5.0945586258985 3.3071682821525 1087.133962943
2526	34386286 17814 112624 123552 1818 2429 612 0 27.712539104447 3403.454036529 58132.552027729
2525	34404100 20207 112621 123552 1817 2429 613 1216.3530958844 2120.8913887031 1099873.9643842 2015322243.141
2524	34424307 20183 112621 123552 1817 2429 613 208.1824810023 2450.1346316687 1255818.1538686 2823036896.9173
2612	34444490 16494 112687 123558 1838 2435 598 0.973 11.082846254492 1143.9184082127 4099.054054405
2611	34460984 17462 112687 123558 1838 2435 598 -2.5 3.0781428239961 5.1302528054552 650.92146477648
2610	34478446 16919 112683 123558 1837 2435 599 0 16.668768043077 3667.9147197129 46104.555993351
2609	34495365 19677 112678 123558 1836 2435 600 1141.7017802205 1907.6638323283 859172.50453192 1262720263.6415
2608	34515042 19745 112678 123558 1836 2435 600 204.84159644239 2415.1235524317 1000494.5043003 1836592944.7404
2542	34534787 17243 112635 123567 1821 2444 624 0.973 32.131102047716 1250.9693925123 8144.453065754
2541	34552030 18737 112635 123567 1821 2444 624 -4.4479592980258 5.1792591264192 8.1044427098614 774.38803909541
2540	34570767 18158 112630 123567 1820 2444 625 0 27.77861124347 3410.0030593625 59305.122447173
2539	34588925 20612 112627 123567 1819 2444 626 1216.4170964258 2120.8971383767 1142274.7352314 2128414357.4177
2538	34609537 20570 112627 123567 1819 2444 626 206.6914567122 2450.4428499418 1310340.1302921 2991558968.6035
2619	34630107 16941 112695 123573 1840 2450 611 0.973 10.319771036491 1129.5635388377 3742.7022050788
2618	34647048 17966 112695 123573 1840 2450 611 -2.5 2.9591251945088 4.9176548257058 580.64081179552
2617	34665014 17411 112691 123573 1839 2450 612 0 16.669576458896 3667.4989250473 46080.426417944
2616	34682425 20141 112687 123573 1838 2450 613 1141.620936065 1908.1735994974 873712.65267375 1280881380.8041
2615	34702566 20196 112687 123573 1838 2450 613 205.49665348686 2415.1142282159 1026667.9932716 1883624463.5492
2626	34722762 16968 112697 123576 1842 2453 612 0.973 10.396805933028 1140.347753073 3888.3215916694
2625	34739730 17995 112697 123576 1842 2453 612 -2.5 2.9789100891212 3.9310497097135 603.70460750465
2624	34757725 17483 112696 123576 1841 2453 613 0 16.669612541402 3664.2366076177 45528.604852652
2623	34775208 20218 112695 123576 1840 2453 614 1142.015058686 1908.3342466289 879521.75386781 1295379470.078
2622	34795426 20131 112695 123576 1840 2453 614 207.35890104808 2415.2310365961 1033517.2289198 1904233344.9035
2633	34815557 16912 112704 123580 1844 2457 614 0.973 11.48058603775 1162.6729969732 4130.7940217925
2632	34832469 18041 112704 123580 1844 2457 614 -2.5 3.0315964679047 5.2750748132427 661.18462421956
2631	34850510 17575 112702 123580 1843 2457 615 0 16.6680630356 3666.86140861 45022.935789347
2630	34868085 20283 112697 123580 1842 2457 616 1141.7189004989 1908.0072689392 889141.76963023 1318193179.1484
2629	34888368 20286 112697 123580 1842 2457 616 205.17287968122 2415.2322958681 1049784.0025387 1956793320.7604
2549	34908654 17630 112642 123582 1823 2459 637 0.973 29.243457328117 1217.2652210882 7293.501890701
2548	34926284 19246 112642 123582 1823 2459 637 -4.2971914960071 5.2369871120714 2.639186203058 626.29370688438
2547	34945530 18643 112639 123582 1822 2459 638 0 27.773638539771 3401.3668001003 59310.635874335
2546	34964173 21053 112635 123582 1821 2459 639 1217.0946145179 2120.573594152 1167735.2472092 2178603671.2472
2545	34985226 20954 112635 123582 1821 2459 639 209.49612957775 2450.6502743094 1337466.5119211 3051263065.625
2556	35006180 17681 112646 123584 1824 2461 638 0.973 28.207637022705 1189.4357703023 6518.9233419883
2555	35023861 19270 112646 123584 1824 2461 638 -3.4097585873659 5.1518841435005 3.2554758159276 530.09006154006
2554	35043131 18640 112642 123584 1823 2461 639 0 27.776889591916 3398.5699116209 58488.530565953
2553	35061771 21038 112639 123584 1822 2461 640 1218.7956029158 2120.7162601054 1168686.0932602 2178335411.5431
2552	35082809 21072 112639 123584 1822 2461 640 211.72345560871 2450.4654952028 1339931.0199346 3056060914.9285
2563	35103881 17651 112654 123587 1826 2464 639 0.973 30.376524901998 1178.6246977986 6401.4606227164
2562	35121532 19260 112654 123587 1826 2464 639 -4.5 4.908390211015 3.5540036144036 538.3456355767
2561	35140792 18676 112651 123587 1825 2464 640 0 27.745669231825 3400.8183251052 57978.961393739
2560	35159468 21063 112646 123587 1824 2464 641 1217.6962098656 2120.8310280247 1169352.1984257 2177372238.8039
2559	35180531 21011 112646 123587 1824 2464 641 208.07841296156 2450.2401743029 1340460.3354183 3056424008.7343
2640	35201542 17085 117527 123592 1846 2469 624 0.973 9.7907519682745 1154.4659372099 4003.6429093546
2639	35218627 18339 117527 123592 1846 2469 624 -2.5 2.9526541384356 3.6920043958315 599.42955735053
2638	35236966 17728 112706 123592 1845 2469 625 0 16.667441525329 3663.5640666821 44981.918018874
2637	35254694 20559 112704 123592 1844 2469 626 1141.5932037625 1907.1838723309 903864.34385748 1340757510.2271
2636	35275253 20620 112704 123592 1844 2469 626 207.34936649189 2415.2317037537 1069579.6556359 1994900573.0929
2570	35295873 17608 112655 123595 1827 2472 646 0.973 16.414408832325 1262.8250112326 5808.3532515825
2569	35313481 19082 112655 123595 1827 2472 646 -4.5 5.1442739436171 3.9088462892565 1001.440802519
2568	35332563 18490 112654 123595 1826 2472 647 0 16.665152953891 3777.6630092502 46138.382902511
2567	35351053 21297 112651 123595 1825 2472 648 1142.006222507 1905.9851545431 938690.1966619 1394704609.5605
2566	35372350 21287 112651 123595 1825 2472 648 206.83445239684 2415.3631710116 1131789.8179219 2161467619.0192
2598	35393637 17584 112675 123599 1834 2476 643 0.95878207079594 17.762244159805 1144.2166904541 4445.5781982057
2597	35411221 19328 112675 123599 1834 2476 643 -2.5 2.9609377867362 4.9528797323559 381.817167092
2596	35430549 18750 112673 123599 1833 2476 644 0 27.770046810149 3405.919836917 55493.619397222
2595	35449299 21237 112671 123599 1832 2476 645 1218.1362751853 2120.8295085486 1172960.2343224 2178483629.6871
2594	35470536 21242 112671 123599 1832 2476 645 204.86774319212 2450.2478864755 1335769.4535495 3034959192.0688
2647	35491778 17278 118083 123602 1848 2479 632 -0.58762293647749 19.638313493139 1140.2361167787 4639.530064987
2646	35509056 18946 118083 123602 1848 2479 632 -2.5 2.8164591577821 5.0096027320706 401.81375345844
2645	35528002 18337 118079 123602 1847 2479 633 0 27.77016669943 3405.2405501722 56579.75516274
2644	35546339 20830 117527 123602 1846 2479 634 1217.199559371 2120.8727129772 1149793.3187897 2129563411.4624
2643	35567169 20886 117527 123602 1846 2479 634 205.17156473035 2450.3283104651 1307784.7472324 2966450283.0827
2654	35588055 17211 118089 123605 1850 2482 633 0.59579045481662 18.365171804003 1128.9883302739 4448.8721706516
2653	35605266 18985 118089 123605 1850 2482 633 -2.4910346897272 2.8024680893053 4.5156607120818 378.1185558197
2652	35624251 18358 118086 123605 1849 2482 634 0 27.779577281034 3400.8959431086 56076.849847678
2651	35642609 20875 118083 123605 1848 2482 635 1217.0686115026 2120.6627169875 1150521.7671555 2128652628.4664
2650	35663484 20920 118083 123605 1848 2482 635 205.97957659734 2450.2070385205 1309171.7146551 2968386979.3163
2661	35684404 17285 118096 123608 1852 2485 634 0.973 19.333939042633 1172.652432185 5118.0059957127
2660	35701689 19048 118096 123608 1852 2485 634 -2.5 2.7473920364221 4.2628366181922 412.00920850415
2659	35720737 18455 118091 123608 1851 2485 635 0 27.779654425175 3401.907853606 57165.312141577
2658	35739192 20959 118089 123608 1850 2485 636 1217.3694299497 2120.6114309002 1151107.9125397 2126988709.8822
2657	35760151 20913 118089 123608 1850 2485 636 206.45628083323 2450.0987953924 1314268.4788756 2984307542.6933
2668	35781064 17351 118102 123611 1854 2488 635 0.973 19.638269528966 1172.9900336509 5051.2682445353
2667	35798415 19082 118102 123611 1854 2488 635 -2.5 2.8619538876845 4.5746912295697 420.30991990187
2666	35817497 18496 118099 123611 1853 2488 636 0 27.773225618635 3401.4671154582 57022.657244123
2665	35835993 20898 118096 123611 1852 2488 637 1216.875251702 2120.5402024323 1152832.0505538 2129740231.0175
2664	35856891 20927 118096 123611 1852 2488 637 207.2874788678 2450.2473570049 1321511.1999767 3001396615.5086
2675	35877818 17315 118107 123615 1856 2492 637 0.76813924436294 17.113720404859 1180.7154865652 5236.0018336211
2674	35895133 19116 118107 123615 1856 2492 637 -2.5 2.895645370828 6.4710425222767 433.29343208951
2673	35914249 18518 118106 123615 1855 2492 638 0 27.768322796584 3407.5997749339 57029.009366358
2672	35932767 20987 118102 123615 1854 2492 639 1216.7123748846 2120.6535227885 1154221.8912102 2127841987.5123
2671	35953754 20991 118102 123615 1854 2492 639 204.44197721477 2450.4322510596 1324445.8947246 3008615411.1366
2682	35974745 17425 118114 123618 1858 2495 638 0.72876662405685 20.121369027723 1169.417516138 5062.2334498499
2681	35992170 19207 118114 123618 1858 2495 638 -2.4694874098297 2.9682688150357 5.8107107861744 417.91106760673
2680	36011377 18590 118113 123618 1857 2495 639 0 27.779005236962 3405.664139875 56780.882303461
2679	36029967 21061 118107 123618 1856 2495 640 1216.4999063639 2120.9184104623 1151832.9871593 2115243905.2169
2678	36051028 21082 118107 123618 1856 2495 640 205.13438643003 2450.5859728835 1326317.0120369 3011704003.1712
2696	36072110 17601 118128 123621 1862 2498 637 0.973 10.43472211705 1183.460368467 4043.903314286
2695	36089711 18887 118128 123621 1862 2498 637 -2.5 3.0082336637261 5.9981260024613 617.28332392567
2694	36108598 18253 118126 123621 1861 2498 638 0 16.669699831752 3670.6985492246 45744.513069385
2693	36126851 20998 118125 123621 1860 2498 639 1141.9697696287 1907.9641713472 925240.22741314 1378725575.1818
2692	36147849 20986 118125 123621 1860 2498 639 205.54919264268 2415.4001355071 1103118.6679032 2080803092.5952
2703	36168835 17551 118137 123624 1865 2501 637 0.973 9.9334870312782 1168.1366580187 3918.9731001659
2702	36186386 18913 118137 123624 1865 2501 637 -2.5 2.8076493453149 3.0651621193633 604.3977981093
2701	36205299 18309 118135 123624 1864 2501 638 0 16.662698268206 3661.1089340804 45097.710128448
2700	36223608 21039 118133 123624 1863 2501 639 1142.0202924935 1908.1714509847 927916.15187873 1386136167.0207
2699	36244647 21051 118133 123624 1863 2501 639 206.90612362756 2414.2044822107 1110817.7238776 2106727579.1643
2710	36265698 17595 118145 123628 1867 2505 639 0.973 10.596902458709 1211.6167589703 4217.8582115666
2709	36283293 18925 118145 123628 1867 2505 639 -2.5 2.93725955236 4.4374588219947 718.50841831928
2708	36302218 18479 118141 123628 1866 2505 640 0 16.668551180727 3666.7269508526 43900.284556648
2707	36320697 21109 118137 123628 1865 2505 641 1141.9065022562 1908.1436612988 942851.13681582 1423231790.1852
2706	36341806 21057 118137 123628 1865 2505 641 204.53395679011 2414.4728835979 1120621.8228294 2134911639.8908
2717	36362863 18219 118153 123650 1869 2527 659 0.973 10.732200172829 1221.6081688897 4144.7593659082
2716	36381082 19677 118153 123650 1869 2527 659 -2.5 2.8908897630882 4.6655256214595 672.12716001761
2715	36400759 19075 118150 123650 1868 2527 660 0 16.669545722469 3664.7105882282 44656.483030893
2714	36419834 21756 118145 123650 1867 2527 661 1141.6319841817 1907.6741740583 970502.30260132 1462278256.8353
2713	36441590 21778 118145 123650 1867 2527 661 205.08052376308 2414.6500991329 1164350.4200255 2221184840.4844
2724	36463368 18137 118159 123656 1871 2533 663 0.973 10.846593686545 1198.4430623261 3998.9776305944
2723	36481505 19786 118159 123656 1871 2533 663 -2.1861746017726 2.8305446353508 5.530083355112 595.82298204216
2722	36501291 19108 118155 123656 1870 2533 664 0 16.663490103229 3668.601741468 44546.073894101
2721	36520399 21853 118153 123656 1869 2533 665 1141.6288496135 1907.408917902 979008.45675349 1477652917.8473
2720	36542252 21889 118153 123656 1869 2533 665 204.31531602808 2414.8264691647 1172652.8635707 2240545050.5278
2689	36564141 18518 118125 123659 1860 2536 677 0.973 19.454381958467 1239.9920493389 5275.3375769966
2688	36582659 20646 118125 123659 1860 2536 677 -2.5 2.7925260058565 6.4501925225189 479.19956391493
2687	36603305 20089 118121 123659 1859 2536 678 0 27.76051327634 3407.4916820043 57084.824864091
2686	36623394 22358 118114 123659 1858 2536 679 1217.9726523766 2120.9038944859 1227155.8006178 2260985147.98
2685	36645752 22361 118114 123659 1858 2536 679 204.78789064882 2450.2310845722 1420687.9532227 3237840262.8348
2731	36668113 18203 118163 123662 1873 2539 667 0.973 11.751773204074 1188.5302960469 3862.9943285813
2730	36686316 19910 118163 123662 1873 2539 667 -2.5 2.8479348732426 4.5027303680942 589.15666450814
2729	36706226 19286 118162 123662 1872 2539 668 0 16.65525280564 3666.4783952123 43601.709215685
2728	36725512 21979 118159 123662 1871 2539 669 1141.7525081206 1907.4001968633 985055.12790447 1486863026.9858
2727	36747491 21985 118159 123662 1871 2539 669 205.56101147691 2414.9898452342 1179383.8298551 2257369202.0285
2577	36769476 19549 112657 123664 1828 2541 714 0.973 17.6043836307 1334.0709673379 6163.3342608099
2576	36789025 21616 112657 123664 1828 2541 714 -4.5 4.9969856616805 3.9740365133297 1025.8867466473
2575	36810641 20925 112655 123664 1827 2541 715 0 16.660320577938 3773.9729399205 45333.59565051
2574	36831566 23579 112654 123664 1826 2541 716 1141.6914641391 1906.5347722508 1081248.2594141 1672395302.7902
2573	36855145 23577 112654 123664 1826 2541 716 209.23512168741 2415.8694684898 1302024.5543297 2567352352.1042
2584	36878722 19471 112660 123668 1830 2545 716 0.973 11.050472517706 1264.1794750456 4129.5544656961
2583	36898193 21671 112660 123668 1830 2545 716 -2.5 2.8095124872017 3.9097921067343 621.09625110013
2582	36919864 20978 112658 123668 1829 2545 717 0 16.668547770593 3777.3422749336 44231.805081748
2581	36940842 23592 112657 123668 1828 2545 718 1141.609093911 1908.1747059813 1089435.9140309 1693215109.0718
2580	36964434 23593 112657 123668 1828 2545 718 206.9324844837 2414.986074075 1311278.4078614 2592847814.156
2591	36988027 19614 112671 123672 1832 2549 718 0.973 10.792560453526 1270.8408452442 4177.6700094765
2590	37007641 21734 112671 123672 1832 2549 718 -2.5 2.9524798578513 5.2570725247812 628.86929148748
2589	37029375 21047 112665 123672 1831 2549 719 0 16.669735908448 3783.0011316515 43805.687959569
2588	37050422 23697 112660 123672 1830 2549 720 1141.6288832948 1907.9741279446 1093805.3484466 1701913197.8798
2587	37074119 23648 112660 123672 1830 2549 720 204.84566779376 2415.1214945959 1314230.4496636 2597290701.244
