version 2
run debug-0-20161231-19:25:43-4188
attr configname debug
attr datetime 20161231-19:25:43
attr experiment debug
attr inifile omnetpp.ini
attr iterationvars ""
attr iterationvars2 $repetition=0
attr measurement ""
attr network RSUExampleScenario
attr processid 4188
attr repetition 0
attr replication #0
attr resultdir results
attr runnumber 0
attr seedset 0
param **.coreDebug false
param **.debug false
param *.**.nic.mac1609_4.bitrate 3Mbps
param *.**.nic.mac1609_4.txPower 20mW
param *.**.nic.mac1609_4.useServiceChannel false
param *.**.nic.phy80211p.analogueModels "xmldoc(\"config.xml\")"
param *.**.nic.phy80211p.decider "xmldoc(\"config.xml\")"
param *.**.nic.phy80211p.sensitivity -89dBm
param *.**.nic.phy80211p.thermalNoise -110dBm
param *.**.nic.phy80211p.usePropagationDelay true
param *.**.nic.phy80211p.useThermalNoise true
param *.annotations.draw false
param *.connectionManager.alpha 2.0
param *.connectionManager.carrierFrequency "5.890e9 Hz"
param *.connectionManager.pMax 12mW
param *.connectionManager.sat -89dBm
param *.connectionManager.sendDirect true
param *.manager.autoShutdown true
param *.manager.host "\"localhost\""
param *.manager.launchConfig "xmldoc(\"erlangen.launchd.xml\")"
param *.manager.margin 25
param *.manager.moduleDisplayString "\"\""
param *.manager.moduleName "\"node\""
param *.manager.moduleType "\"org.car2x.veins.nodes.Car\""
param *.manager.port 9999
param *.manager.updateInterval 1s
param *.node[*].appl.beaconInterval 1s
param *.node[*].appl.beaconPriority 3
param *.node[*].appl.dataOnSch false
param *.node[*].appl.dataPriority 2
param *.node[*].appl.debug false
param *.node[*].appl.headerLength "256 bit"
param *.node[*].appl.maxOffset 0.005s
param *.node[*].appl.sendBeacons false
param *.node[*].appl.sendData true
param *.node[*].applType "\"TraCIDemo11p\""
param *.node[*].mobilityType "\"TraCIMobility\""
param *.node[*].mobilityType.debug true
param *.node[*].veinsmobility.accidentCount 5
param *.node[*].veinsmobility.accidentDuration 43s
param *.node[*].veinsmobility.accidentStart 85s
param *.node[*].veinsmobility.x 0
param *.node[*].veinsmobility.y 0
param *.node[*].veinsmobility.z 1.895
param *.node[*].veinsmobilityType "\"org.car2x.veins.modules.mobility.traci.TraCIMobility\""
param *.node[*].veinsmobilityType.debug true
param *.obstacles.debug false
param *.obstacles.obstacles "xmldoc(\"config.xml\", \"//AnalogueModel[@type='SimpleObstacleShadowing']/obstacles\")"
param *.playgroundSizeX 2500m
param *.playgroundSizeY 2500m
param *.playgroundSizeZ 50m
param *.rsu[*].appl.beaconInterval 1s
param *.rsu[*].appl.beaconPriority 3
param *.rsu[*].appl.dataOnSch false
param *.rsu[*].appl.dataPriority 2
param *.rsu[*].appl.debug false
param *.rsu[*].appl.headerLength "256 bit"
param *.rsu[*].appl.maxOffset 0.005s
param *.rsu[*].appl.sendBeacons false
param *.rsu[*].appl.sendData true
param *.rsu[*].applType "\"TraCIDemoRSU11p\""
param *.rsu[0].mobility.x 2000
param *.rsu[0].mobility.y 2000
param *.rsu[0].mobility.z 3
param *.world.use2D false
param *.world.useTorus false

scalar RSUExampleScenario.node[0].nic.phy80211p 	busyTime 	0
scalar RSUExampleScenario.node[0].nic.mac1609_4 	ReceivedUnicastPackets 	0
scalar RSUExampleScenario.node[0].nic.mac1609_4 	ReceivedBroadcasts 	0
scalar RSUExampleScenario.node[0].nic.mac1609_4 	SentPackets 	1
scalar RSUExampleScenario.node[0].nic.mac1609_4 	SNIRLostPackets 	0
scalar RSUExampleScenario.node[0].nic.mac1609_4 	RXTXLostPackets 	0
scalar RSUExampleScenario.node[0].nic.mac1609_4 	TotalLostPackets 	0
scalar RSUExampleScenario.node[0].nic.mac1609_4 	DroppedPacketsInMac 	0
scalar RSUExampleScenario.node[0].nic.mac1609_4 	TooLittleTime 	0
scalar RSUExampleScenario.node[0].nic.mac1609_4 	TimesIntoBackoff 	1
scalar RSUExampleScenario.node[0].nic.mac1609_4 	SlotsBackoff 	6
scalar RSUExampleScenario.node[0].nic.mac1609_4 	NumInternalContention 	0
scalar RSUExampleScenario.node[0].nic.mac1609_4 	totalBusyTime 	0.000481
scalar RSUExampleScenario.node[0].veinsmobility 	startTime 	1
scalar RSUExampleScenario.node[0].veinsmobility 	totalTime 	327
scalar RSUExampleScenario.node[0].veinsmobility 	stopTime 	329
scalar RSUExampleScenario.node[0].veinsmobility 	minSpeed 	0
scalar RSUExampleScenario.node[0].veinsmobility 	maxSpeed 	27.768710480146
scalar RSUExampleScenario.node[0].veinsmobility 	totalDistance 	3389.8999233353
scalar RSUExampleScenario.node[0].veinsmobility 	totalCO2Emission 	912.69200864236
scalar RSUExampleScenario.node[1].nic.phy80211p 	busyTime 	1.9393939393939e-05
scalar RSUExampleScenario.node[1].nic.mac1609_4 	ReceivedUnicastPackets 	0
scalar RSUExampleScenario.node[1].nic.mac1609_4 	ReceivedBroadcasts 	12
scalar RSUExampleScenario.node[1].nic.mac1609_4 	SentPackets 	1
scalar RSUExampleScenario.node[1].nic.mac1609_4 	SNIRLostPackets 	4
scalar RSUExampleScenario.node[1].nic.mac1609_4 	RXTXLostPackets 	2
scalar RSUExampleScenario.node[1].nic.mac1609_4 	TotalLostPackets 	6
scalar RSUExampleScenario.node[1].nic.mac1609_4 	DroppedPacketsInMac 	0
scalar RSUExampleScenario.node[1].nic.mac1609_4 	TooLittleTime 	0
scalar RSUExampleScenario.node[1].nic.mac1609_4 	TimesIntoBackoff 	2
scalar RSUExampleScenario.node[1].nic.mac1609_4 	SlotsBackoff 	10
scalar RSUExampleScenario.node[1].nic.mac1609_4 	NumInternalContention 	0
scalar RSUExampleScenario.node[1].nic.mac1609_4 	totalBusyTime 	0.006241
scalar RSUExampleScenario.node[1].veinsmobility 	startTime 	3
scalar RSUExampleScenario.node[1].veinsmobility 	totalTime 	395
scalar RSUExampleScenario.node[1].veinsmobility 	stopTime 	399
scalar RSUExampleScenario.node[1].veinsmobility 	minSpeed 	0
scalar RSUExampleScenario.node[1].veinsmobility 	maxSpeed 	27.778188040318
scalar RSUExampleScenario.node[1].veinsmobility 	totalDistance 	3393.1241447146
scalar RSUExampleScenario.node[1].veinsmobility 	totalCO2Emission 	895.92864570834
scalar RSUExampleScenario.node[2].nic.phy80211p 	busyTime 	2.16e-05
scalar RSUExampleScenario.node[2].nic.mac1609_4 	ReceivedUnicastPackets 	0
scalar RSUExampleScenario.node[2].nic.mac1609_4 	ReceivedBroadcasts 	12
scalar RSUExampleScenario.node[2].nic.mac1609_4 	SentPackets 	1
scalar RSUExampleScenario.node[2].nic.mac1609_4 	SNIRLostPackets 	6
scalar RSUExampleScenario.node[2].nic.mac1609_4 	RXTXLostPackets 	0
scalar RSUExampleScenario.node[2].nic.mac1609_4 	TotalLostPackets 	6
scalar RSUExampleScenario.node[2].nic.mac1609_4 	DroppedPacketsInMac 	0
scalar RSUExampleScenario.node[2].nic.mac1609_4 	TooLittleTime 	0
scalar RSUExampleScenario.node[2].nic.mac1609_4 	TimesIntoBackoff 	1
scalar RSUExampleScenario.node[2].nic.mac1609_4 	SlotsBackoff 	4
scalar RSUExampleScenario.node[2].nic.mac1609_4 	NumInternalContention 	0
scalar RSUExampleScenario.node[2].nic.mac1609_4 	totalBusyTime 	0.006241
scalar RSUExampleScenario.node[2].veinsmobility 	startTime 	5
scalar RSUExampleScenario.node[2].veinsmobility 	totalTime 	399
scalar RSUExampleScenario.node[2].veinsmobility 	stopTime 	405
scalar RSUExampleScenario.node[2].veinsmobility 	minSpeed 	0
scalar RSUExampleScenario.node[2].veinsmobility 	maxSpeed 	27.777677725879
scalar RSUExampleScenario.node[2].veinsmobility 	totalDistance 	3387.5352854083
scalar RSUExampleScenario.node[2].veinsmobility 	totalCO2Emission 	972.51374978124
scalar RSUExampleScenario.node[3].nic.phy80211p 	busyTime 	1.9152119700748e-05
scalar RSUExampleScenario.node[3].nic.mac1609_4 	ReceivedUnicastPackets 	0
scalar RSUExampleScenario.node[3].nic.mac1609_4 	ReceivedBroadcasts 	12
scalar RSUExampleScenario.node[3].nic.mac1609_4 	SentPackets 	1
scalar RSUExampleScenario.node[3].nic.mac1609_4 	SNIRLostPackets 	4
scalar RSUExampleScenario.node[3].nic.mac1609_4 	RXTXLostPackets 	2
scalar RSUExampleScenario.node[3].nic.mac1609_4 	TotalLostPackets 	6
scalar RSUExampleScenario.node[3].nic.mac1609_4 	DroppedPacketsInMac 	0
scalar RSUExampleScenario.node[3].nic.mac1609_4 	TooLittleTime 	0
scalar RSUExampleScenario.node[3].nic.mac1609_4 	TimesIntoBackoff 	2
scalar RSUExampleScenario.node[3].nic.mac1609_4 	SlotsBackoff 	8
scalar RSUExampleScenario.node[3].nic.mac1609_4 	NumInternalContention 	0
scalar RSUExampleScenario.node[3].nic.mac1609_4 	totalBusyTime 	0.006241
scalar RSUExampleScenario.node[3].veinsmobility 	startTime 	7
scalar RSUExampleScenario.node[3].veinsmobility 	totalTime 	400
scalar RSUExampleScenario.node[3].veinsmobility 	stopTime 	408
scalar RSUExampleScenario.node[3].veinsmobility 	minSpeed 	0
scalar RSUExampleScenario.node[3].veinsmobility 	maxSpeed 	27.750909077181
scalar RSUExampleScenario.node[3].veinsmobility 	totalDistance 	3396.3492042637
scalar RSUExampleScenario.node[3].veinsmobility 	totalCO2Emission 	1012.5747137893
scalar RSUExampleScenario.node[4].nic.phy80211p 	busyTime 	2.1073170731707e-05
scalar RSUExampleScenario.node[4].nic.mac1609_4 	ReceivedUnicastPackets 	0
scalar RSUExampleScenario.node[4].nic.mac1609_4 	ReceivedBroadcasts 	11
scalar RSUExampleScenario.node[4].nic.mac1609_4 	SentPackets 	1
scalar RSUExampleScenario.node[4].nic.mac1609_4 	SNIRLostPackets 	7
scalar RSUExampleScenario.node[4].nic.mac1609_4 	RXTXLostPackets 	0
scalar RSUExampleScenario.node[4].nic.mac1609_4 	TotalLostPackets 	7
scalar RSUExampleScenario.node[4].nic.mac1609_4 	DroppedPacketsInMac 	0
scalar RSUExampleScenario.node[4].nic.mac1609_4 	TooLittleTime 	0
scalar RSUExampleScenario.node[4].nic.mac1609_4 	TimesIntoBackoff 	2
scalar RSUExampleScenario.node[4].nic.mac1609_4 	SlotsBackoff 	11
scalar RSUExampleScenario.node[4].nic.mac1609_4 	NumInternalContention 	0
scalar RSUExampleScenario.node[4].nic.mac1609_4 	totalBusyTime 	0.006241014696
scalar RSUExampleScenario.node[4].veinsmobility 	startTime 	8
scalar RSUExampleScenario.node[4].veinsmobility 	totalTime 	409
scalar RSUExampleScenario.node[4].veinsmobility 	stopTime 	418
scalar RSUExampleScenario.node[4].veinsmobility 	minSpeed 	0
scalar RSUExampleScenario.node[4].veinsmobility 	maxSpeed 	27.75182667057
scalar RSUExampleScenario.node[4].veinsmobility 	totalDistance 	3391.3954504149
scalar RSUExampleScenario.node[4].veinsmobility 	totalCO2Emission 	998.10449427559
scalar RSUExampleScenario.node[10].nic.phy80211p 	busyTime 	2.4766584766585e-05
scalar RSUExampleScenario.node[10].nic.mac1609_4 	ReceivedUnicastPackets 	0
scalar RSUExampleScenario.node[10].nic.mac1609_4 	ReceivedBroadcasts 	9
scalar RSUExampleScenario.node[10].nic.mac1609_4 	SentPackets 	1
scalar RSUExampleScenario.node[10].nic.mac1609_4 	SNIRLostPackets 	12
scalar RSUExampleScenario.node[10].nic.mac1609_4 	RXTXLostPackets 	0
scalar RSUExampleScenario.node[10].nic.mac1609_4 	TotalLostPackets 	12
scalar RSUExampleScenario.node[10].nic.mac1609_4 	DroppedPacketsInMac 	0
scalar RSUExampleScenario.node[10].nic.mac1609_4 	TooLittleTime 	0
scalar RSUExampleScenario.node[10].nic.mac1609_4 	TimesIntoBackoff 	2
scalar RSUExampleScenario.node[10].nic.mac1609_4 	SlotsBackoff 	3
scalar RSUExampleScenario.node[10].nic.mac1609_4 	NumInternalContention 	0
scalar RSUExampleScenario.node[10].nic.mac1609_4 	totalBusyTime 	0.006304926897
scalar RSUExampleScenario.node[10].veinsmobility 	startTime 	19
scalar RSUExampleScenario.node[10].veinsmobility 	totalTime 	406
scalar RSUExampleScenario.node[10].veinsmobility 	stopTime 	426
scalar RSUExampleScenario.node[10].veinsmobility 	minSpeed 	0
scalar RSUExampleScenario.node[10].veinsmobility 	maxSpeed 	27.751222434836
scalar RSUExampleScenario.node[10].veinsmobility 	totalDistance 	3389.4619379014
scalar RSUExampleScenario.node[10].veinsmobility 	totalCO2Emission 	974.18395022735
scalar RSUExampleScenario.node[6].nic.phy80211p 	busyTime 	2.2018348623853e-05
scalar RSUExampleScenario.node[6].nic.mac1609_4 	ReceivedUnicastPackets 	0
scalar RSUExampleScenario.node[6].nic.mac1609_4 	ReceivedBroadcasts 	10
scalar RSUExampleScenario.node[6].nic.mac1609_4 	SentPackets 	1
scalar RSUExampleScenario.node[6].nic.mac1609_4 	SNIRLostPackets 	10
scalar RSUExampleScenario.node[6].nic.mac1609_4 	RXTXLostPackets 	0
scalar RSUExampleScenario.node[6].nic.mac1609_4 	TotalLostPackets 	10
scalar RSUExampleScenario.node[6].nic.mac1609_4 	DroppedPacketsInMac 	0
scalar RSUExampleScenario.node[6].nic.mac1609_4 	TooLittleTime 	0
scalar RSUExampleScenario.node[6].nic.mac1609_4 	TimesIntoBackoff 	2
scalar RSUExampleScenario.node[6].nic.mac1609_4 	SlotsBackoff 	6
scalar RSUExampleScenario.node[6].nic.mac1609_4 	NumInternalContention 	0
scalar RSUExampleScenario.node[6].nic.mac1609_4 	totalBusyTime 	0.006241
scalar RSUExampleScenario.node[6].veinsmobility 	startTime 	12
scalar RSUExampleScenario.node[6].veinsmobility 	totalTime 	435
scalar RSUExampleScenario.node[6].veinsmobility 	stopTime 	448
scalar RSUExampleScenario.node[6].veinsmobility 	minSpeed 	0
scalar RSUExampleScenario.node[6].veinsmobility 	maxSpeed 	27.779343798762
scalar RSUExampleScenario.node[6].veinsmobility 	totalDistance 	3395.1155914422
scalar RSUExampleScenario.node[6].veinsmobility 	totalCO2Emission 	920.54092456723
scalar RSUExampleScenario.node[12].nic.phy80211p 	busyTime 	1.9960396039604e-05
scalar RSUExampleScenario.node[12].nic.mac1609_4 	ReceivedUnicastPackets 	0
scalar RSUExampleScenario.node[12].nic.mac1609_4 	ReceivedBroadcasts 	9
scalar RSUExampleScenario.node[12].nic.mac1609_4 	SentPackets 	1
scalar RSUExampleScenario.node[12].nic.mac1609_4 	SNIRLostPackets 	12
scalar RSUExampleScenario.node[12].nic.mac1609_4 	RXTXLostPackets 	2
scalar RSUExampleScenario.node[12].nic.mac1609_4 	TotalLostPackets 	14
scalar RSUExampleScenario.node[12].nic.mac1609_4 	DroppedPacketsInMac 	0
scalar RSUExampleScenario.node[12].nic.mac1609_4 	TooLittleTime 	0
scalar RSUExampleScenario.node[12].nic.mac1609_4 	TimesIntoBackoff 	2
scalar RSUExampleScenario.node[12].nic.mac1609_4 	SlotsBackoff 	8
scalar RSUExampleScenario.node[12].nic.mac1609_4 	NumInternalContention 	0
scalar RSUExampleScenario.node[12].nic.mac1609_4 	totalBusyTime 	0.006721
scalar RSUExampleScenario.node[12].veinsmobility 	startTime 	23
scalar RSUExampleScenario.node[12].veinsmobility 	totalTime 	504
scalar RSUExampleScenario.node[12].veinsmobility 	stopTime 	528
scalar RSUExampleScenario.node[12].veinsmobility 	minSpeed 	0
scalar RSUExampleScenario.node[12].veinsmobility 	maxSpeed 	27.772976816192
scalar RSUExampleScenario.node[12].veinsmobility 	totalDistance 	3392.3856649018
scalar RSUExampleScenario.node[12].veinsmobility 	totalCO2Emission 	1010.7264562615
scalar RSUExampleScenario.node[5].nic.phy80211p 	busyTime 	1.658349328215e-05
scalar RSUExampleScenario.node[5].nic.mac1609_4 	ReceivedUnicastPackets 	0
scalar RSUExampleScenario.node[5].nic.mac1609_4 	ReceivedBroadcasts 	11
scalar RSUExampleScenario.node[5].nic.mac1609_4 	SentPackets 	1
scalar RSUExampleScenario.node[5].nic.mac1609_4 	SNIRLostPackets 	7
scalar RSUExampleScenario.node[5].nic.mac1609_4 	RXTXLostPackets 	1
scalar RSUExampleScenario.node[5].nic.mac1609_4 	TotalLostPackets 	8
scalar RSUExampleScenario.node[5].nic.mac1609_4 	DroppedPacketsInMac 	0
scalar RSUExampleScenario.node[5].nic.mac1609_4 	TooLittleTime 	0
scalar RSUExampleScenario.node[5].nic.mac1609_4 	TimesIntoBackoff 	2
scalar RSUExampleScenario.node[5].nic.mac1609_4 	SlotsBackoff 	6
scalar RSUExampleScenario.node[5].nic.mac1609_4 	NumInternalContention 	0
scalar RSUExampleScenario.node[5].nic.mac1609_4 	totalBusyTime 	0.006241075722
scalar RSUExampleScenario.node[5].veinsmobility 	startTime 	10
scalar RSUExampleScenario.node[5].veinsmobility 	totalTime 	520
scalar RSUExampleScenario.node[5].veinsmobility 	stopTime 	531
scalar RSUExampleScenario.node[5].veinsmobility 	minSpeed 	0
scalar RSUExampleScenario.node[5].veinsmobility 	maxSpeed 	27.763528873604
scalar RSUExampleScenario.node[5].veinsmobility 	totalDistance 	3405.9171928534
scalar RSUExampleScenario.node[5].veinsmobility 	totalCO2Emission 	1134.0485642665
scalar RSUExampleScenario.node[13].nic.phy80211p 	busyTime 	2.2677165354331e-05
scalar RSUExampleScenario.node[13].nic.mac1609_4 	ReceivedUnicastPackets 	0
scalar RSUExampleScenario.node[13].nic.mac1609_4 	ReceivedBroadcasts 	9
scalar RSUExampleScenario.node[13].nic.mac1609_4 	SentPackets 	1
scalar RSUExampleScenario.node[13].nic.mac1609_4 	SNIRLostPackets 	15
scalar RSUExampleScenario.node[13].nic.mac1609_4 	RXTXLostPackets 	0
scalar RSUExampleScenario.node[13].nic.mac1609_4 	TotalLostPackets 	15
scalar RSUExampleScenario.node[13].nic.mac1609_4 	DroppedPacketsInMac 	0
scalar RSUExampleScenario.node[13].nic.mac1609_4 	TooLittleTime 	0
scalar RSUExampleScenario.node[13].nic.mac1609_4 	TimesIntoBackoff 	1
scalar RSUExampleScenario.node[13].nic.mac1609_4 	SlotsBackoff 	6
scalar RSUExampleScenario.node[13].nic.mac1609_4 	NumInternalContention 	0
scalar RSUExampleScenario.node[13].nic.mac1609_4 	totalBusyTime 	0.006721
scalar RSUExampleScenario.node[13].veinsmobility 	startTime 	25
scalar RSUExampleScenario.node[13].veinsmobility 	totalTime 	507
scalar RSUExampleScenario.node[13].veinsmobility 	stopTime 	533
scalar RSUExampleScenario.node[13].veinsmobility 	minSpeed 	0
scalar RSUExampleScenario.node[13].veinsmobility 	maxSpeed 	27.775104928277
scalar RSUExampleScenario.node[13].veinsmobility 	totalDistance 	3396.9335657499
scalar RSUExampleScenario.node[13].veinsmobility 	totalCO2Emission 	1151.0566690829
scalar RSUExampleScenario.node[7].nic.phy80211p 	busyTime 	1.6363636363636e-05
scalar RSUExampleScenario.node[7].nic.mac1609_4 	ReceivedUnicastPackets 	0
scalar RSUExampleScenario.node[7].nic.mac1609_4 	ReceivedBroadcasts 	11
scalar RSUExampleScenario.node[7].nic.mac1609_4 	SentPackets 	1
scalar RSUExampleScenario.node[7].nic.mac1609_4 	SNIRLostPackets 	7
scalar RSUExampleScenario.node[7].nic.mac1609_4 	RXTXLostPackets 	2
scalar RSUExampleScenario.node[7].nic.mac1609_4 	TotalLostPackets 	9
scalar RSUExampleScenario.node[7].nic.mac1609_4 	DroppedPacketsInMac 	0
scalar RSUExampleScenario.node[7].nic.mac1609_4 	TooLittleTime 	0
scalar RSUExampleScenario.node[7].nic.mac1609_4 	TimesIntoBackoff 	2
scalar RSUExampleScenario.node[7].nic.mac1609_4 	SlotsBackoff 	7
scalar RSUExampleScenario.node[7].nic.mac1609_4 	NumInternalContention 	0
scalar RSUExampleScenario.node[7].nic.mac1609_4 	totalBusyTime 	0.006241
scalar RSUExampleScenario.node[7].veinsmobility 	startTime 	14
scalar RSUExampleScenario.node[7].veinsmobility 	totalTime 	527
scalar RSUExampleScenario.node[7].veinsmobility 	stopTime 	542
scalar RSUExampleScenario.node[7].veinsmobility 	minSpeed 	0
scalar RSUExampleScenario.node[7].veinsmobility 	maxSpeed 	27.737601034408
scalar RSUExampleScenario.node[7].veinsmobility 	totalDistance 	3397.3923118487
scalar RSUExampleScenario.node[7].veinsmobility 	totalCO2Emission 	1127.0939243329
scalar RSUExampleScenario.node[15].nic.phy80211p 	busyTime 	2.1149425287356e-05
scalar RSUExampleScenario.node[15].nic.mac1609_4 	ReceivedUnicastPackets 	0
scalar RSUExampleScenario.node[15].nic.mac1609_4 	ReceivedBroadcasts 	9
scalar RSUExampleScenario.node[15].nic.mac1609_4 	SentPackets 	1
scalar RSUExampleScenario.node[15].nic.mac1609_4 	SNIRLostPackets 	14
scalar RSUExampleScenario.node[15].nic.mac1609_4 	RXTXLostPackets 	3
scalar RSUExampleScenario.node[15].nic.mac1609_4 	TotalLostPackets 	17
scalar RSUExampleScenario.node[15].nic.mac1609_4 	DroppedPacketsInMac 	0
scalar RSUExampleScenario.node[15].nic.mac1609_4 	TooLittleTime 	0
scalar RSUExampleScenario.node[15].nic.mac1609_4 	TimesIntoBackoff 	2
scalar RSUExampleScenario.node[15].nic.mac1609_4 	SlotsBackoff 	5
scalar RSUExampleScenario.node[15].nic.mac1609_4 	NumInternalContention 	0
scalar RSUExampleScenario.node[15].nic.mac1609_4 	totalBusyTime 	0.007201
scalar RSUExampleScenario.node[15].veinsmobility 	startTime 	28
scalar RSUExampleScenario.node[15].veinsmobility 	totalTime 	521
scalar RSUExampleScenario.node[15].veinsmobility 	stopTime 	550
scalar RSUExampleScenario.node[15].veinsmobility 	minSpeed 	0
scalar RSUExampleScenario.node[15].veinsmobility 	maxSpeed 	27.779721437907
scalar RSUExampleScenario.node[15].veinsmobility 	totalDistance 	3401.6083636025
scalar RSUExampleScenario.node[15].veinsmobility 	totalCO2Emission 	1134.3547738572
scalar RSUExampleScenario.node[16].nic.phy80211p 	busyTime 	2.3327102803738e-05
scalar RSUExampleScenario.node[16].nic.mac1609_4 	ReceivedUnicastPackets 	0
scalar RSUExampleScenario.node[16].nic.mac1609_4 	ReceivedBroadcasts 	9
scalar RSUExampleScenario.node[16].nic.mac1609_4 	SentPackets 	1
scalar RSUExampleScenario.node[16].nic.mac1609_4 	SNIRLostPackets 	17
scalar RSUExampleScenario.node[16].nic.mac1609_4 	RXTXLostPackets 	0
scalar RSUExampleScenario.node[16].nic.mac1609_4 	TotalLostPackets 	17
scalar RSUExampleScenario.node[16].nic.mac1609_4 	DroppedPacketsInMac 	0
scalar RSUExampleScenario.node[16].nic.mac1609_4 	TooLittleTime 	0
scalar RSUExampleScenario.node[16].nic.mac1609_4 	TimesIntoBackoff 	2
scalar RSUExampleScenario.node[16].nic.mac1609_4 	SlotsBackoff 	10
scalar RSUExampleScenario.node[16].nic.mac1609_4 	NumInternalContention 	0
scalar RSUExampleScenario.node[16].nic.mac1609_4 	totalBusyTime 	0.007201
scalar RSUExampleScenario.node[16].veinsmobility 	startTime 	30
scalar RSUExampleScenario.node[16].veinsmobility 	totalTime 	534
scalar RSUExampleScenario.node[16].veinsmobility 	stopTime 	565
scalar RSUExampleScenario.node[16].veinsmobility 	minSpeed 	0
scalar RSUExampleScenario.node[16].veinsmobility 	maxSpeed 	27.750498325201
scalar RSUExampleScenario.node[16].veinsmobility 	totalDistance 	3388.993663364
scalar RSUExampleScenario.node[16].veinsmobility 	totalCO2Emission 	1169.4604247062
scalar RSUExampleScenario.node[11].nic.phy80211p 	busyTime 	1.8394160583942e-05
scalar RSUExampleScenario.node[11].nic.mac1609_4 	ReceivedUnicastPackets 	0
scalar RSUExampleScenario.node[11].nic.mac1609_4 	ReceivedBroadcasts 	9
scalar RSUExampleScenario.node[11].nic.mac1609_4 	SentPackets 	1
scalar RSUExampleScenario.node[11].nic.mac1609_4 	SNIRLostPackets 	12
scalar RSUExampleScenario.node[11].nic.mac1609_4 	RXTXLostPackets 	0
scalar RSUExampleScenario.node[11].nic.mac1609_4 	TotalLostPackets 	12
scalar RSUExampleScenario.node[11].nic.mac1609_4 	DroppedPacketsInMac 	0
scalar RSUExampleScenario.node[11].nic.mac1609_4 	TooLittleTime 	0
scalar RSUExampleScenario.node[11].nic.mac1609_4 	TimesIntoBackoff 	2
scalar RSUExampleScenario.node[11].nic.mac1609_4 	SlotsBackoff 	7
scalar RSUExampleScenario.node[11].nic.mac1609_4 	NumInternalContention 	0
scalar RSUExampleScenario.node[11].nic.mac1609_4 	totalBusyTime 	0.006305057193
scalar RSUExampleScenario.node[11].veinsmobility 	startTime 	20
scalar RSUExampleScenario.node[11].veinsmobility 	totalTime 	547
scalar RSUExampleScenario.node[11].veinsmobility 	stopTime 	568
scalar RSUExampleScenario.node[11].veinsmobility 	minSpeed 	0
scalar RSUExampleScenario.node[11].veinsmobility 	maxSpeed 	27.749026262658
scalar RSUExampleScenario.node[11].veinsmobility 	totalDistance 	3399.2016491143
scalar RSUExampleScenario.node[11].veinsmobility 	totalCO2Emission 	1273.6835358908
scalar RSUExampleScenario.node[33].nic.phy80211p 	busyTime 	2.2988505747126e-05
scalar RSUExampleScenario.node[33].nic.mac1609_4 	ReceivedUnicastPackets 	0
scalar RSUExampleScenario.node[33].nic.mac1609_4 	ReceivedBroadcasts 	15
scalar RSUExampleScenario.node[33].nic.mac1609_4 	SentPackets 	1
scalar RSUExampleScenario.node[33].nic.mac1609_4 	SNIRLostPackets 	10
scalar RSUExampleScenario.node[33].nic.mac1609_4 	RXTXLostPackets 	5
scalar RSUExampleScenario.node[33].nic.mac1609_4 	TotalLostPackets 	15
scalar RSUExampleScenario.node[33].nic.mac1609_4 	DroppedPacketsInMac 	0
scalar RSUExampleScenario.node[33].nic.mac1609_4 	TooLittleTime 	0
scalar RSUExampleScenario.node[33].nic.mac1609_4 	TimesIntoBackoff 	2
scalar RSUExampleScenario.node[33].nic.mac1609_4 	SlotsBackoff 	4
scalar RSUExampleScenario.node[33].nic.mac1609_4 	NumInternalContention 	0
scalar RSUExampleScenario.node[33].nic.mac1609_4 	totalBusyTime 	0.008641121184
scalar RSUExampleScenario.node[33].veinsmobility 	startTime 	60
scalar RSUExampleScenario.node[33].veinsmobility 	totalTime 	521
scalar RSUExampleScenario.node[33].veinsmobility 	stopTime 	582
scalar RSUExampleScenario.node[33].veinsmobility 	minSpeed 	0
scalar RSUExampleScenario.node[33].veinsmobility 	maxSpeed 	27.754512508195
scalar RSUExampleScenario.node[33].veinsmobility 	totalDistance 	3396.0561338783
scalar RSUExampleScenario.node[33].veinsmobility 	totalCO2Emission 	1386.8924455694
scalar RSUExampleScenario.node[14].nic.phy80211p 	busyTime 	2.2365591397849e-05
scalar RSUExampleScenario.node[14].nic.mac1609_4 	ReceivedUnicastPackets 	0
scalar RSUExampleScenario.node[14].nic.mac1609_4 	ReceivedBroadcasts 	9
scalar RSUExampleScenario.node[14].nic.mac1609_4 	SentPackets 	1
scalar RSUExampleScenario.node[14].nic.mac1609_4 	SNIRLostPackets 	17
scalar RSUExampleScenario.node[14].nic.mac1609_4 	RXTXLostPackets 	0
scalar RSUExampleScenario.node[14].nic.mac1609_4 	TotalLostPackets 	17
scalar RSUExampleScenario.node[14].nic.mac1609_4 	DroppedPacketsInMac 	0
scalar RSUExampleScenario.node[14].nic.mac1609_4 	TooLittleTime 	0
scalar RSUExampleScenario.node[14].nic.mac1609_4 	TimesIntoBackoff 	2
scalar RSUExampleScenario.node[14].nic.mac1609_4 	SlotsBackoff 	7
scalar RSUExampleScenario.node[14].nic.mac1609_4 	NumInternalContention 	0
scalar RSUExampleScenario.node[14].nic.mac1609_4 	totalBusyTime 	0.007201
scalar RSUExampleScenario.node[14].veinsmobility 	startTime 	27
scalar RSUExampleScenario.node[14].veinsmobility 	totalTime 	557
scalar RSUExampleScenario.node[14].veinsmobility 	stopTime 	585
scalar RSUExampleScenario.node[14].veinsmobility 	minSpeed 	0
scalar RSUExampleScenario.node[14].veinsmobility 	maxSpeed 	27.770110275866
scalar RSUExampleScenario.node[14].veinsmobility 	totalDistance 	3404.590269486
scalar RSUExampleScenario.node[14].veinsmobility 	totalCO2Emission 	1258.0109715311
scalar RSUExampleScenario.node[8].nic.phy80211p 	busyTime 	1.5131348511384e-05
scalar RSUExampleScenario.node[8].nic.mac1609_4 	ReceivedUnicastPackets 	0
scalar RSUExampleScenario.node[8].nic.mac1609_4 	ReceivedBroadcasts 	11
scalar RSUExampleScenario.node[8].nic.mac1609_4 	SentPackets 	1
scalar RSUExampleScenario.node[8].nic.mac1609_4 	SNIRLostPackets 	7
scalar RSUExampleScenario.node[8].nic.mac1609_4 	RXTXLostPackets 	2
scalar RSUExampleScenario.node[8].nic.mac1609_4 	TotalLostPackets 	9
scalar RSUExampleScenario.node[8].nic.mac1609_4 	DroppedPacketsInMac 	0
scalar RSUExampleScenario.node[8].nic.mac1609_4 	TooLittleTime 	0
scalar RSUExampleScenario.node[8].nic.mac1609_4 	TimesIntoBackoff 	2
scalar RSUExampleScenario.node[8].nic.mac1609_4 	SlotsBackoff 	4
scalar RSUExampleScenario.node[8].nic.mac1609_4 	NumInternalContention 	0
scalar RSUExampleScenario.node[8].nic.mac1609_4 	totalBusyTime 	0.006241
scalar RSUExampleScenario.node[8].veinsmobility 	startTime 	16
scalar RSUExampleScenario.node[8].veinsmobility 	totalTime 	570
scalar RSUExampleScenario.node[8].veinsmobility 	stopTime 	587
scalar RSUExampleScenario.node[8].veinsmobility 	minSpeed 	0
scalar RSUExampleScenario.node[8].veinsmobility 	maxSpeed 	27.773561144182
scalar RSUExampleScenario.node[8].veinsmobility 	totalDistance 	3400.8987624655
scalar RSUExampleScenario.node[8].veinsmobility 	totalCO2Emission 	1209.9560969174
scalar RSUExampleScenario.node[17].nic.phy80211p 	busyTime 	2.1505376344086e-05
scalar RSUExampleScenario.node[17].nic.mac1609_4 	ReceivedUnicastPackets 	0
scalar RSUExampleScenario.node[17].nic.mac1609_4 	ReceivedBroadcasts 	11
scalar RSUExampleScenario.node[17].nic.mac1609_4 	SentPackets 	1
scalar RSUExampleScenario.node[17].nic.mac1609_4 	SNIRLostPackets 	14
scalar RSUExampleScenario.node[17].nic.mac1609_4 	RXTXLostPackets 	0
scalar RSUExampleScenario.node[17].nic.mac1609_4 	TotalLostPackets 	14
scalar RSUExampleScenario.node[17].nic.mac1609_4 	DroppedPacketsInMac 	0
scalar RSUExampleScenario.node[17].nic.mac1609_4 	TooLittleTime 	0
scalar RSUExampleScenario.node[17].nic.mac1609_4 	TimesIntoBackoff 	2
scalar RSUExampleScenario.node[17].nic.mac1609_4 	SlotsBackoff 	5
scalar RSUExampleScenario.node[17].nic.mac1609_4 	NumInternalContention 	0
scalar RSUExampleScenario.node[17].nic.mac1609_4 	totalBusyTime 	0.007201
scalar RSUExampleScenario.node[17].veinsmobility 	startTime 	31
scalar RSUExampleScenario.node[17].veinsmobility 	totalTime 	557
scalar RSUExampleScenario.node[17].veinsmobility 	stopTime 	589
scalar RSUExampleScenario.node[17].veinsmobility 	minSpeed 	0
scalar RSUExampleScenario.node[17].veinsmobility 	maxSpeed 	27.759899032293
scalar RSUExampleScenario.node[17].veinsmobility 	totalDistance 	3394.0870273985
scalar RSUExampleScenario.node[17].veinsmobility 	totalCO2Emission 	1340.3299830392
scalar RSUExampleScenario.node[18].nic.phy80211p 	busyTime 	1.9426644182125e-05
scalar RSUExampleScenario.node[18].nic.mac1609_4 	ReceivedUnicastPackets 	0
scalar RSUExampleScenario.node[18].nic.mac1609_4 	ReceivedBroadcasts 	10
scalar RSUExampleScenario.node[18].nic.mac1609_4 	SentPackets 	1
scalar RSUExampleScenario.node[18].nic.mac1609_4 	SNIRLostPackets 	14
scalar RSUExampleScenario.node[18].nic.mac1609_4 	RXTXLostPackets 	2
scalar RSUExampleScenario.node[18].nic.mac1609_4 	TotalLostPackets 	16
scalar RSUExampleScenario.node[18].nic.mac1609_4 	DroppedPacketsInMac 	0
scalar RSUExampleScenario.node[18].nic.mac1609_4 	TooLittleTime 	0
scalar RSUExampleScenario.node[18].nic.mac1609_4 	TimesIntoBackoff 	2
scalar RSUExampleScenario.node[18].nic.mac1609_4 	SlotsBackoff 	10
scalar RSUExampleScenario.node[18].nic.mac1609_4 	NumInternalContention 	0
scalar RSUExampleScenario.node[18].nic.mac1609_4 	totalBusyTime 	0.007201
scalar RSUExampleScenario.node[18].veinsmobility 	startTime 	33
scalar RSUExampleScenario.node[18].veinsmobility 	totalTime 	592
scalar RSUExampleScenario.node[18].veinsmobility 	stopTime 	626
scalar RSUExampleScenario.node[18].veinsmobility 	minSpeed 	0
scalar RSUExampleScenario.node[18].veinsmobility 	maxSpeed 	27.751253866982
scalar RSUExampleScenario.node[18].veinsmobility 	totalDistance 	3407.6992658437
scalar RSUExampleScenario.node[18].veinsmobility 	totalCO2Emission 	1408.3482378532
scalar RSUExampleScenario.node[55].nic.phy80211p 	busyTime 	1.7538461538462e-05
scalar RSUExampleScenario.node[55].nic.mac1609_4 	ReceivedUnicastPackets 	0
scalar RSUExampleScenario.node[55].nic.mac1609_4 	ReceivedBroadcasts 	13
scalar RSUExampleScenario.node[55].nic.mac1609_4 	SentPackets 	1
scalar RSUExampleScenario.node[55].nic.mac1609_4 	SNIRLostPackets 	6
scalar RSUExampleScenario.node[55].nic.mac1609_4 	RXTXLostPackets 	2
scalar RSUExampleScenario.node[55].nic.mac1609_4 	TotalLostPackets 	8
scalar RSUExampleScenario.node[55].nic.mac1609_4 	DroppedPacketsInMac 	0
scalar RSUExampleScenario.node[55].nic.mac1609_4 	TooLittleTime 	0
scalar RSUExampleScenario.node[55].nic.mac1609_4 	TimesIntoBackoff 	2
scalar RSUExampleScenario.node[55].nic.mac1609_4 	SlotsBackoff 	11
scalar RSUExampleScenario.node[55].nic.mac1609_4 	NumInternalContention 	0
scalar RSUExampleScenario.node[55].nic.mac1609_4 	totalBusyTime 	0.00672100023
scalar RSUExampleScenario.node[55].veinsmobility 	startTime 	110
scalar RSUExampleScenario.node[55].veinsmobility 	totalTime 	519
scalar RSUExampleScenario.node[55].veinsmobility 	stopTime 	630
scalar RSUExampleScenario.node[55].veinsmobility 	minSpeed 	0
scalar RSUExampleScenario.node[55].veinsmobility 	maxSpeed 	27.755822391091
scalar RSUExampleScenario.node[55].veinsmobility 	totalDistance 	3403.2182561553
scalar RSUExampleScenario.node[55].veinsmobility 	totalCO2Emission 	1245.6611450904
scalar RSUExampleScenario.node[9].nic.phy80211p 	busyTime 	1.4829268292683e-05
scalar RSUExampleScenario.node[9].nic.mac1609_4 	ReceivedUnicastPackets 	0
scalar RSUExampleScenario.node[9].nic.mac1609_4 	ReceivedBroadcasts 	10
scalar RSUExampleScenario.node[9].nic.mac1609_4 	SentPackets 	1
scalar RSUExampleScenario.node[9].nic.mac1609_4 	SNIRLostPackets 	9
scalar RSUExampleScenario.node[9].nic.mac1609_4 	RXTXLostPackets 	1
scalar RSUExampleScenario.node[9].nic.mac1609_4 	TotalLostPackets 	10
scalar RSUExampleScenario.node[9].nic.mac1609_4 	DroppedPacketsInMac 	0
scalar RSUExampleScenario.node[9].nic.mac1609_4 	TooLittleTime 	0
scalar RSUExampleScenario.node[9].nic.mac1609_4 	TimesIntoBackoff 	2
scalar RSUExampleScenario.node[9].nic.mac1609_4 	SlotsBackoff 	5
scalar RSUExampleScenario.node[9].nic.mac1609_4 	NumInternalContention 	0
scalar RSUExampleScenario.node[9].nic.mac1609_4 	totalBusyTime 	0.006241040334
scalar RSUExampleScenario.node[9].veinsmobility 	startTime 	17
scalar RSUExampleScenario.node[9].veinsmobility 	totalTime 	614
scalar RSUExampleScenario.node[9].veinsmobility 	stopTime 	632
scalar RSUExampleScenario.node[9].veinsmobility 	minSpeed 	0
scalar RSUExampleScenario.node[9].veinsmobility 	maxSpeed 	27.771861459516
scalar RSUExampleScenario.node[9].veinsmobility 	totalDistance 	3407.3810562897
scalar RSUExampleScenario.node[9].veinsmobility 	totalCO2Emission 	1259.7633344471
scalar RSUExampleScenario.node[29].nic.phy80211p 	busyTime 	2.5567010309278e-05
scalar RSUExampleScenario.node[29].nic.mac1609_4 	ReceivedUnicastPackets 	0
scalar RSUExampleScenario.node[29].nic.mac1609_4 	ReceivedBroadcasts 	9
scalar RSUExampleScenario.node[29].nic.mac1609_4 	SentPackets 	1
scalar RSUExampleScenario.node[29].nic.mac1609_4 	SNIRLostPackets 	22
scalar RSUExampleScenario.node[29].nic.mac1609_4 	RXTXLostPackets 	0
scalar RSUExampleScenario.node[29].nic.mac1609_4 	TotalLostPackets 	22
scalar RSUExampleScenario.node[29].nic.mac1609_4 	DroppedPacketsInMac 	0
scalar RSUExampleScenario.node[29].nic.mac1609_4 	TooLittleTime 	0
scalar RSUExampleScenario.node[29].nic.mac1609_4 	TimesIntoBackoff 	1
scalar RSUExampleScenario.node[29].nic.mac1609_4 	SlotsBackoff 	4
scalar RSUExampleScenario.node[29].nic.mac1609_4 	NumInternalContention 	0
scalar RSUExampleScenario.node[29].nic.mac1609_4 	totalBusyTime 	0.007681119682
scalar RSUExampleScenario.node[29].veinsmobility 	startTime 	53
scalar RSUExampleScenario.node[29].veinsmobility 	totalTime 	581
scalar RSUExampleScenario.node[29].veinsmobility 	stopTime 	635
scalar RSUExampleScenario.node[29].veinsmobility 	minSpeed 	0
scalar RSUExampleScenario.node[29].veinsmobility 	maxSpeed 	16.663127341149
scalar RSUExampleScenario.node[29].veinsmobility 	totalDistance 	3263.8737062438
scalar RSUExampleScenario.node[29].veinsmobility 	totalCO2Emission 	1204.9054368974
scalar RSUExampleScenario.node[39].nic.phy80211p 	busyTime 	3.3982300884956e-05
scalar RSUExampleScenario.node[39].nic.mac1609_4 	ReceivedUnicastPackets 	0
scalar RSUExampleScenario.node[39].nic.mac1609_4 	ReceivedBroadcasts 	19
scalar RSUExampleScenario.node[39].nic.mac1609_4 	SentPackets 	1
scalar RSUExampleScenario.node[39].nic.mac1609_4 	SNIRLostPackets 	21
scalar RSUExampleScenario.node[39].nic.mac1609_4 	RXTXLostPackets 	2
scalar RSUExampleScenario.node[39].nic.mac1609_4 	TotalLostPackets 	23
scalar RSUExampleScenario.node[39].nic.mac1609_4 	DroppedPacketsInMac 	0
scalar RSUExampleScenario.node[39].nic.mac1609_4 	TooLittleTime 	0
scalar RSUExampleScenario.node[39].nic.mac1609_4 	TimesIntoBackoff 	2
scalar RSUExampleScenario.node[39].nic.mac1609_4 	SlotsBackoff 	2
scalar RSUExampleScenario.node[39].nic.mac1609_4 	NumInternalContention 	0
scalar RSUExampleScenario.node[39].nic.mac1609_4 	totalBusyTime 	0.012001002044
scalar RSUExampleScenario.node[39].veinsmobility 	startTime 	72
scalar RSUExampleScenario.node[39].veinsmobility 	totalTime 	564
scalar RSUExampleScenario.node[39].veinsmobility 	stopTime 	637
scalar RSUExampleScenario.node[39].veinsmobility 	minSpeed 	0
scalar RSUExampleScenario.node[39].veinsmobility 	maxSpeed 	27.778087795554
scalar RSUExampleScenario.node[39].veinsmobility 	totalDistance 	3412.8447262222
scalar RSUExampleScenario.node[39].veinsmobility 	totalCO2Emission 	1433.5115342374
scalar RSUExampleScenario.node[19].nic.phy80211p 	busyTime 	1.904132231405e-05
scalar RSUExampleScenario.node[19].nic.mac1609_4 	ReceivedUnicastPackets 	0
scalar RSUExampleScenario.node[19].nic.mac1609_4 	ReceivedBroadcasts 	8
scalar RSUExampleScenario.node[19].nic.mac1609_4 	SentPackets 	1
scalar RSUExampleScenario.node[19].nic.mac1609_4 	SNIRLostPackets 	16
scalar RSUExampleScenario.node[19].nic.mac1609_4 	RXTXLostPackets 	2
scalar RSUExampleScenario.node[19].nic.mac1609_4 	TotalLostPackets 	18
scalar RSUExampleScenario.node[19].nic.mac1609_4 	DroppedPacketsInMac 	0
scalar RSUExampleScenario.node[19].nic.mac1609_4 	TooLittleTime 	0
scalar RSUExampleScenario.node[19].nic.mac1609_4 	TimesIntoBackoff 	2
scalar RSUExampleScenario.node[19].nic.mac1609_4 	SlotsBackoff 	9
scalar RSUExampleScenario.node[19].nic.mac1609_4 	NumInternalContention 	0
scalar RSUExampleScenario.node[19].nic.mac1609_4 	totalBusyTime 	0.006721
scalar RSUExampleScenario.node[19].veinsmobility 	startTime 	34
scalar RSUExampleScenario.node[19].veinsmobility 	totalTime 	604
scalar RSUExampleScenario.node[19].veinsmobility 	stopTime 	639
scalar RSUExampleScenario.node[19].veinsmobility 	minSpeed 	0
scalar RSUExampleScenario.node[19].veinsmobility 	maxSpeed 	27.754203486498
scalar RSUExampleScenario.node[19].veinsmobility 	totalDistance 	3402.4075201728
scalar RSUExampleScenario.node[19].veinsmobility 	totalCO2Emission 	1460.8844373639
scalar RSUExampleScenario.node[27].nic.phy80211p 	busyTime 	2.4324324324324e-05
scalar RSUExampleScenario.node[27].nic.mac1609_4 	ReceivedUnicastPackets 	0
scalar RSUExampleScenario.node[27].nic.mac1609_4 	ReceivedBroadcasts 	12
scalar RSUExampleScenario.node[27].nic.mac1609_4 	SentPackets 	1
scalar RSUExampleScenario.node[27].nic.mac1609_4 	SNIRLostPackets 	18
scalar RSUExampleScenario.node[27].nic.mac1609_4 	RXTXLostPackets 	2
scalar RSUExampleScenario.node[27].nic.mac1609_4 	TotalLostPackets 	20
scalar RSUExampleScenario.node[27].nic.mac1609_4 	DroppedPacketsInMac 	0
scalar RSUExampleScenario.node[27].nic.mac1609_4 	TooLittleTime 	0
scalar RSUExampleScenario.node[27].nic.mac1609_4 	TimesIntoBackoff 	2
scalar RSUExampleScenario.node[27].nic.mac1609_4 	SlotsBackoff 	3
scalar RSUExampleScenario.node[27].nic.mac1609_4 	NumInternalContention 	0
scalar RSUExampleScenario.node[27].nic.mac1609_4 	totalBusyTime 	0.007681000998
scalar RSUExampleScenario.node[27].veinsmobility 	startTime 	49
scalar RSUExampleScenario.node[27].veinsmobility 	totalTime 	591
scalar RSUExampleScenario.node[27].veinsmobility 	stopTime 	641
scalar RSUExampleScenario.node[27].veinsmobility 	minSpeed 	0
scalar RSUExampleScenario.node[27].veinsmobility 	maxSpeed 	16.665235267999
scalar RSUExampleScenario.node[27].veinsmobility 	totalDistance 	3346.6927871514
scalar RSUExampleScenario.node[27].veinsmobility 	totalCO2Emission 	1177.6147500261
scalar RSUExampleScenario.node[57].nic.phy80211p 	busyTime 	1.4490566037736e-05
scalar RSUExampleScenario.node[57].nic.mac1609_4 	ReceivedUnicastPackets 	0
scalar RSUExampleScenario.node[57].nic.mac1609_4 	ReceivedBroadcasts 	13
scalar RSUExampleScenario.node[57].nic.mac1609_4 	SentPackets 	1
scalar RSUExampleScenario.node[57].nic.mac1609_4 	SNIRLostPackets 	3
scalar RSUExampleScenario.node[57].nic.mac1609_4 	RXTXLostPackets 	5
scalar RSUExampleScenario.node[57].nic.mac1609_4 	TotalLostPackets 	8
scalar RSUExampleScenario.node[57].nic.mac1609_4 	DroppedPacketsInMac 	0
scalar RSUExampleScenario.node[57].nic.mac1609_4 	TooLittleTime 	0
scalar RSUExampleScenario.node[57].nic.mac1609_4 	TimesIntoBackoff 	2
scalar RSUExampleScenario.node[57].nic.mac1609_4 	SlotsBackoff 	13
scalar RSUExampleScenario.node[57].nic.mac1609_4 	NumInternalContention 	0
scalar RSUExampleScenario.node[57].nic.mac1609_4 	totalBusyTime 	0.006721091353
scalar RSUExampleScenario.node[57].veinsmobility 	startTime 	114
scalar RSUExampleScenario.node[57].veinsmobility 	totalTime 	529
scalar RSUExampleScenario.node[57].veinsmobility 	stopTime 	644
scalar RSUExampleScenario.node[57].veinsmobility 	minSpeed 	0
scalar RSUExampleScenario.node[57].veinsmobility 	maxSpeed 	27.766799942218
scalar RSUExampleScenario.node[57].veinsmobility 	totalDistance 	3400.8763473886
scalar RSUExampleScenario.node[57].veinsmobility 	totalCO2Emission 	1234.6329628494
scalar RSUExampleScenario.node[58].nic.phy80211p 	busyTime 	1.6951672862454e-05
scalar RSUExampleScenario.node[58].nic.mac1609_4 	ReceivedUnicastPackets 	0
scalar RSUExampleScenario.node[58].nic.mac1609_4 	ReceivedBroadcasts 	12
scalar RSUExampleScenario.node[58].nic.mac1609_4 	SentPackets 	1
scalar RSUExampleScenario.node[58].nic.mac1609_4 	SNIRLostPackets 	7
scalar RSUExampleScenario.node[58].nic.mac1609_4 	RXTXLostPackets 	2
scalar RSUExampleScenario.node[58].nic.mac1609_4 	TotalLostPackets 	9
scalar RSUExampleScenario.node[58].nic.mac1609_4 	DroppedPacketsInMac 	0
scalar RSUExampleScenario.node[58].nic.mac1609_4 	TooLittleTime 	0
scalar RSUExampleScenario.node[58].nic.mac1609_4 	TimesIntoBackoff 	2
scalar RSUExampleScenario.node[58].nic.mac1609_4 	SlotsBackoff 	7
scalar RSUExampleScenario.node[58].nic.mac1609_4 	NumInternalContention 	0
scalar RSUExampleScenario.node[58].nic.mac1609_4 	totalBusyTime 	0.006721205822
scalar RSUExampleScenario.node[58].veinsmobility 	startTime 	117
scalar RSUExampleScenario.node[58].veinsmobility 	totalTime 	537
scalar RSUExampleScenario.node[58].veinsmobility 	stopTime 	655
scalar RSUExampleScenario.node[58].veinsmobility 	minSpeed 	0
scalar RSUExampleScenario.node[58].veinsmobility 	maxSpeed 	27.73356153707
scalar RSUExampleScenario.node[58].veinsmobility 	totalDistance 	3404.8420700127
scalar RSUExampleScenario.node[58].veinsmobility 	totalCO2Emission 	1257.3042485686
scalar RSUExampleScenario.node[63].nic.phy80211p 	busyTime 	2.3458646616541e-05
scalar RSUExampleScenario.node[63].nic.mac1609_4 	ReceivedUnicastPackets 	0
scalar RSUExampleScenario.node[63].nic.mac1609_4 	ReceivedBroadcasts 	13
scalar RSUExampleScenario.node[63].nic.mac1609_4 	SentPackets 	1
scalar RSUExampleScenario.node[63].nic.mac1609_4 	SNIRLostPackets 	13
scalar RSUExampleScenario.node[63].nic.mac1609_4 	RXTXLostPackets 	5
scalar RSUExampleScenario.node[63].nic.mac1609_4 	TotalLostPackets 	18
scalar RSUExampleScenario.node[63].nic.mac1609_4 	DroppedPacketsInMac 	0
scalar RSUExampleScenario.node[63].nic.mac1609_4 	TooLittleTime 	0
scalar RSUExampleScenario.node[63].nic.mac1609_4 	TimesIntoBackoff 	2
scalar RSUExampleScenario.node[63].nic.mac1609_4 	SlotsBackoff 	8
scalar RSUExampleScenario.node[63].nic.mac1609_4 	NumInternalContention 	0
scalar RSUExampleScenario.node[63].nic.mac1609_4 	totalBusyTime 	0.008161218071
scalar RSUExampleScenario.node[63].veinsmobility 	startTime 	128
scalar RSUExampleScenario.node[63].veinsmobility 	totalTime 	531
scalar RSUExampleScenario.node[63].veinsmobility 	stopTime 	660
scalar RSUExampleScenario.node[63].veinsmobility 	minSpeed 	0
scalar RSUExampleScenario.node[63].veinsmobility 	maxSpeed 	27.768662790209
scalar RSUExampleScenario.node[63].veinsmobility 	totalDistance 	3400.2045546974
scalar RSUExampleScenario.node[63].veinsmobility 	totalCO2Emission 	1255.626302319
scalar RSUExampleScenario.node[61].nic.phy80211p 	busyTime 	2.0109289617486e-05
scalar RSUExampleScenario.node[61].nic.mac1609_4 	ReceivedUnicastPackets 	0
scalar RSUExampleScenario.node[61].nic.mac1609_4 	ReceivedBroadcasts 	14
scalar RSUExampleScenario.node[61].nic.mac1609_4 	SentPackets 	1
scalar RSUExampleScenario.node[61].nic.mac1609_4 	SNIRLostPackets 	9
scalar RSUExampleScenario.node[61].nic.mac1609_4 	RXTXLostPackets 	5
scalar RSUExampleScenario.node[61].nic.mac1609_4 	TotalLostPackets 	14
scalar RSUExampleScenario.node[61].nic.mac1609_4 	DroppedPacketsInMac 	0
scalar RSUExampleScenario.node[61].nic.mac1609_4 	TooLittleTime 	0
scalar RSUExampleScenario.node[61].nic.mac1609_4 	TimesIntoBackoff 	2
scalar RSUExampleScenario.node[61].nic.mac1609_4 	SlotsBackoff 	11
scalar RSUExampleScenario.node[61].nic.mac1609_4 	NumInternalContention 	0
scalar RSUExampleScenario.node[61].nic.mac1609_4 	totalBusyTime 	0.008161162053
scalar RSUExampleScenario.node[61].veinsmobility 	startTime 	124
scalar RSUExampleScenario.node[61].veinsmobility 	totalTime 	548
scalar RSUExampleScenario.node[61].veinsmobility 	stopTime 	673
scalar RSUExampleScenario.node[61].veinsmobility 	minSpeed 	0
scalar RSUExampleScenario.node[61].veinsmobility 	maxSpeed 	27.764196583377
scalar RSUExampleScenario.node[61].veinsmobility 	totalDistance 	3401.279753046
scalar RSUExampleScenario.node[61].veinsmobility 	totalCO2Emission 	1304.6797275693
scalar RSUExampleScenario.node[40].nic.phy80211p 	busyTime 	1.92e-05
scalar RSUExampleScenario.node[40].nic.mac1609_4 	ReceivedUnicastPackets 	0
scalar RSUExampleScenario.node[40].nic.mac1609_4 	ReceivedBroadcasts 	10
scalar RSUExampleScenario.node[40].nic.mac1609_4 	SentPackets 	1
scalar RSUExampleScenario.node[40].nic.mac1609_4 	SNIRLostPackets 	15
scalar RSUExampleScenario.node[40].nic.mac1609_4 	RXTXLostPackets 	1
scalar RSUExampleScenario.node[40].nic.mac1609_4 	TotalLostPackets 	16
scalar RSUExampleScenario.node[40].nic.mac1609_4 	DroppedPacketsInMac 	0
scalar RSUExampleScenario.node[40].nic.mac1609_4 	TooLittleTime 	0
scalar RSUExampleScenario.node[40].nic.mac1609_4 	TimesIntoBackoff 	2
scalar RSUExampleScenario.node[40].nic.mac1609_4 	SlotsBackoff 	10
scalar RSUExampleScenario.node[40].nic.mac1609_4 	NumInternalContention 	0
scalar RSUExampleScenario.node[40].nic.mac1609_4 	totalBusyTime 	0.006721056089
scalar RSUExampleScenario.node[40].veinsmobility 	startTime 	74
scalar RSUExampleScenario.node[40].veinsmobility 	totalTime 	624
scalar RSUExampleScenario.node[40].veinsmobility 	stopTime 	699
scalar RSUExampleScenario.node[40].veinsmobility 	minSpeed 	0
scalar RSUExampleScenario.node[40].veinsmobility 	maxSpeed 	16.663303014291
scalar RSUExampleScenario.node[40].veinsmobility 	totalDistance 	3255.108818108
scalar RSUExampleScenario.node[40].veinsmobility 	totalCO2Emission 	1148.8945598784
scalar RSUExampleScenario.node[54].nic.phy80211p 	busyTime 	1.6941176470588e-05
scalar RSUExampleScenario.node[54].nic.mac1609_4 	ReceivedUnicastPackets 	0
scalar RSUExampleScenario.node[54].nic.mac1609_4 	ReceivedBroadcasts 	13
scalar RSUExampleScenario.node[54].nic.mac1609_4 	SentPackets 	1
scalar RSUExampleScenario.node[54].nic.mac1609_4 	SNIRLostPackets 	8
scalar RSUExampleScenario.node[54].nic.mac1609_4 	RXTXLostPackets 	0
scalar RSUExampleScenario.node[54].nic.mac1609_4 	TotalLostPackets 	8
scalar RSUExampleScenario.node[54].nic.mac1609_4 	DroppedPacketsInMac 	0
scalar RSUExampleScenario.node[54].nic.mac1609_4 	TooLittleTime 	0
scalar RSUExampleScenario.node[54].nic.mac1609_4 	TimesIntoBackoff 	2
scalar RSUExampleScenario.node[54].nic.mac1609_4 	SlotsBackoff 	10
scalar RSUExampleScenario.node[54].nic.mac1609_4 	NumInternalContention 	0
scalar RSUExampleScenario.node[54].nic.mac1609_4 	totalBusyTime 	0.00672100023
scalar RSUExampleScenario.node[54].veinsmobility 	startTime 	108
scalar RSUExampleScenario.node[54].veinsmobility 	totalTime 	594
scalar RSUExampleScenario.node[54].veinsmobility 	stopTime 	703
scalar RSUExampleScenario.node[54].veinsmobility 	minSpeed 	0
scalar RSUExampleScenario.node[54].veinsmobility 	maxSpeed 	27.730178748583
scalar RSUExampleScenario.node[54].veinsmobility 	totalDistance 	3397.2911593543
scalar RSUExampleScenario.node[54].veinsmobility 	totalCO2Emission 	1350.1535571555
scalar RSUExampleScenario.node[65].nic.phy80211p 	busyTime 	3.2613240418118e-05
scalar RSUExampleScenario.node[65].nic.mac1609_4 	ReceivedUnicastPackets 	0
scalar RSUExampleScenario.node[65].nic.mac1609_4 	ReceivedBroadcasts 	9
scalar RSUExampleScenario.node[65].nic.mac1609_4 	SentPackets 	1
scalar RSUExampleScenario.node[65].nic.mac1609_4 	SNIRLostPackets 	30
scalar RSUExampleScenario.node[65].nic.mac1609_4 	RXTXLostPackets 	0
scalar RSUExampleScenario.node[65].nic.mac1609_4 	TotalLostPackets 	30
scalar RSUExampleScenario.node[65].nic.mac1609_4 	DroppedPacketsInMac 	0
scalar RSUExampleScenario.node[65].nic.mac1609_4 	TooLittleTime 	0
scalar RSUExampleScenario.node[65].nic.mac1609_4 	TimesIntoBackoff 	2
scalar RSUExampleScenario.node[65].nic.mac1609_4 	SlotsBackoff 	7
scalar RSUExampleScenario.node[65].nic.mac1609_4 	NumInternalContention 	0
scalar RSUExampleScenario.node[65].nic.mac1609_4 	totalBusyTime 	0.008641
scalar RSUExampleScenario.node[65].veinsmobility 	startTime 	133
scalar RSUExampleScenario.node[65].veinsmobility 	totalTime 	573
scalar RSUExampleScenario.node[65].veinsmobility 	stopTime 	707
scalar RSUExampleScenario.node[65].veinsmobility 	minSpeed 	0
scalar RSUExampleScenario.node[65].veinsmobility 	maxSpeed 	27.659476815835
scalar RSUExampleScenario.node[65].veinsmobility 	totalDistance 	3399.703996033
scalar RSUExampleScenario.node[65].veinsmobility 	totalCO2Emission 	1408.9215447235
scalar RSUExampleScenario.node[37].nic.phy80211p 	busyTime 	1.9348837209302e-05
scalar RSUExampleScenario.node[37].nic.mac1609_4 	ReceivedUnicastPackets 	0
scalar RSUExampleScenario.node[37].nic.mac1609_4 	ReceivedBroadcasts 	9
scalar RSUExampleScenario.node[37].nic.mac1609_4 	SentPackets 	1
scalar RSUExampleScenario.node[37].nic.mac1609_4 	SNIRLostPackets 	17
scalar RSUExampleScenario.node[37].nic.mac1609_4 	RXTXLostPackets 	0
scalar RSUExampleScenario.node[37].nic.mac1609_4 	TotalLostPackets 	17
scalar RSUExampleScenario.node[37].nic.mac1609_4 	DroppedPacketsInMac 	0
scalar RSUExampleScenario.node[37].nic.mac1609_4 	TooLittleTime 	0
scalar RSUExampleScenario.node[37].nic.mac1609_4 	TimesIntoBackoff 	2
scalar RSUExampleScenario.node[37].nic.mac1609_4 	SlotsBackoff 	7
scalar RSUExampleScenario.node[37].nic.mac1609_4 	NumInternalContention 	0
scalar RSUExampleScenario.node[37].nic.mac1609_4 	totalBusyTime 	0.006721116565
scalar RSUExampleScenario.node[37].veinsmobility 	startTime 	68
scalar RSUExampleScenario.node[37].veinsmobility 	totalTime 	644
scalar RSUExampleScenario.node[37].veinsmobility 	stopTime 	713
scalar RSUExampleScenario.node[37].veinsmobility 	minSpeed 	0
scalar RSUExampleScenario.node[37].veinsmobility 	maxSpeed 	16.668871964701
scalar RSUExampleScenario.node[37].veinsmobility 	totalDistance 	3254.2533917253
scalar RSUExampleScenario.node[37].veinsmobility 	totalCO2Emission 	1187.6980343214
scalar RSUExampleScenario.node[73].nic.phy80211p 	busyTime 	3.0530035335689e-05
scalar RSUExampleScenario.node[73].nic.mac1609_4 	ReceivedUnicastPackets 	0
scalar RSUExampleScenario.node[73].nic.mac1609_4 	ReceivedBroadcasts 	16
scalar RSUExampleScenario.node[73].nic.mac1609_4 	SentPackets 	1
scalar RSUExampleScenario.node[73].nic.mac1609_4 	SNIRLostPackets 	19
scalar RSUExampleScenario.node[73].nic.mac1609_4 	RXTXLostPackets 	2
scalar RSUExampleScenario.node[73].nic.mac1609_4 	TotalLostPackets 	21
scalar RSUExampleScenario.node[73].nic.mac1609_4 	DroppedPacketsInMac 	0
scalar RSUExampleScenario.node[73].nic.mac1609_4 	TooLittleTime 	0
scalar RSUExampleScenario.node[73].nic.mac1609_4 	TimesIntoBackoff 	1
scalar RSUExampleScenario.node[73].nic.mac1609_4 	SlotsBackoff 	7
scalar RSUExampleScenario.node[73].nic.mac1609_4 	NumInternalContention 	0
scalar RSUExampleScenario.node[73].nic.mac1609_4 	totalBusyTime 	0.011041250901
scalar RSUExampleScenario.node[73].veinsmobility 	startTime 	151
scalar RSUExampleScenario.node[73].veinsmobility 	totalTime 	565
scalar RSUExampleScenario.node[73].veinsmobility 	stopTime 	717
scalar RSUExampleScenario.node[73].veinsmobility 	minSpeed 	0
scalar RSUExampleScenario.node[73].veinsmobility 	maxSpeed 	27.753066233685
scalar RSUExampleScenario.node[73].veinsmobility 	totalDistance 	3396.1944150768
scalar RSUExampleScenario.node[73].veinsmobility 	totalCO2Emission 	1393.6911680501
scalar RSUExampleScenario.node[28].nic.phy80211p 	busyTime 	2.0807174887892e-05
scalar RSUExampleScenario.node[28].nic.mac1609_4 	ReceivedUnicastPackets 	0
scalar RSUExampleScenario.node[28].nic.mac1609_4 	ReceivedBroadcasts 	11
scalar RSUExampleScenario.node[28].nic.mac1609_4 	SentPackets 	1
scalar RSUExampleScenario.node[28].nic.mac1609_4 	SNIRLostPackets 	18
scalar RSUExampleScenario.node[28].nic.mac1609_4 	RXTXLostPackets 	2
scalar RSUExampleScenario.node[28].nic.mac1609_4 	TotalLostPackets 	20
scalar RSUExampleScenario.node[28].nic.mac1609_4 	DroppedPacketsInMac 	0
scalar RSUExampleScenario.node[28].nic.mac1609_4 	TooLittleTime 	0
scalar RSUExampleScenario.node[28].nic.mac1609_4 	TimesIntoBackoff 	2
scalar RSUExampleScenario.node[28].nic.mac1609_4 	SlotsBackoff 	2
scalar RSUExampleScenario.node[28].nic.mac1609_4 	NumInternalContention 	0
scalar RSUExampleScenario.node[28].nic.mac1609_4 	totalBusyTime 	0.007681140616
scalar RSUExampleScenario.node[28].veinsmobility 	startTime 	51
scalar RSUExampleScenario.node[28].veinsmobility 	totalTime 	668
scalar RSUExampleScenario.node[28].veinsmobility 	stopTime 	720
scalar RSUExampleScenario.node[28].veinsmobility 	minSpeed 	0
scalar RSUExampleScenario.node[28].veinsmobility 	maxSpeed 	16.665104344543
scalar RSUExampleScenario.node[28].veinsmobility 	totalDistance 	3355.9846937346
scalar RSUExampleScenario.node[28].veinsmobility 	totalCO2Emission 	1286.6039557341
scalar RSUExampleScenario.node[59].nic.phy80211p 	busyTime 	1.7512437810945e-05
scalar RSUExampleScenario.node[59].nic.mac1609_4 	ReceivedUnicastPackets 	0
scalar RSUExampleScenario.node[59].nic.mac1609_4 	ReceivedBroadcasts 	12
scalar RSUExampleScenario.node[59].nic.mac1609_4 	SentPackets 	1
scalar RSUExampleScenario.node[59].nic.mac1609_4 	SNIRLostPackets 	10
scalar RSUExampleScenario.node[59].nic.mac1609_4 	RXTXLostPackets 	0
scalar RSUExampleScenario.node[59].nic.mac1609_4 	TotalLostPackets 	10
scalar RSUExampleScenario.node[59].nic.mac1609_4 	DroppedPacketsInMac 	0
scalar RSUExampleScenario.node[59].nic.mac1609_4 	TooLittleTime 	0
scalar RSUExampleScenario.node[59].nic.mac1609_4 	TimesIntoBackoff 	1
scalar RSUExampleScenario.node[59].nic.mac1609_4 	SlotsBackoff 	0
scalar RSUExampleScenario.node[59].nic.mac1609_4 	NumInternalContention 	0
scalar RSUExampleScenario.node[59].nic.mac1609_4 	totalBusyTime 	0.006721154481
scalar RSUExampleScenario.node[59].veinsmobility 	startTime 	119
scalar RSUExampleScenario.node[59].veinsmobility 	totalTime 	602
scalar RSUExampleScenario.node[59].veinsmobility 	stopTime 	722
scalar RSUExampleScenario.node[59].veinsmobility 	minSpeed 	0
scalar RSUExampleScenario.node[59].veinsmobility 	maxSpeed 	27.74575318872
scalar RSUExampleScenario.node[59].veinsmobility 	totalDistance 	3402.2317313479
scalar RSUExampleScenario.node[59].veinsmobility 	totalCO2Emission 	1443.1861988827
scalar RSUExampleScenario.node[52].nic.phy80211p 	busyTime 	1.6231884057971e-05
scalar RSUExampleScenario.node[52].nic.mac1609_4 	ReceivedUnicastPackets 	0
scalar RSUExampleScenario.node[52].nic.mac1609_4 	ReceivedBroadcasts 	12
scalar RSUExampleScenario.node[52].nic.mac1609_4 	SentPackets 	1
scalar RSUExampleScenario.node[52].nic.mac1609_4 	SNIRLostPackets 	9
scalar RSUExampleScenario.node[52].nic.mac1609_4 	RXTXLostPackets 	0
scalar RSUExampleScenario.node[52].nic.mac1609_4 	TotalLostPackets 	9
scalar RSUExampleScenario.node[52].nic.mac1609_4 	DroppedPacketsInMac 	0
scalar RSUExampleScenario.node[52].nic.mac1609_4 	TooLittleTime 	0
scalar RSUExampleScenario.node[52].nic.mac1609_4 	TimesIntoBackoff 	1
scalar RSUExampleScenario.node[52].nic.mac1609_4 	SlotsBackoff 	4
scalar RSUExampleScenario.node[52].nic.mac1609_4 	NumInternalContention 	0
scalar RSUExampleScenario.node[52].nic.mac1609_4 	totalBusyTime 	0.006721
scalar RSUExampleScenario.node[52].veinsmobility 	startTime 	103
scalar RSUExampleScenario.node[52].veinsmobility 	totalTime 	620
scalar RSUExampleScenario.node[52].veinsmobility 	stopTime 	724
scalar RSUExampleScenario.node[52].veinsmobility 	minSpeed 	0
scalar RSUExampleScenario.node[52].veinsmobility 	maxSpeed 	27.770011592032
scalar RSUExampleScenario.node[52].veinsmobility 	totalDistance 	3392.9516453834
scalar RSUExampleScenario.node[52].veinsmobility 	totalCO2Emission 	1396.7339723415
scalar RSUExampleScenario.node[51].nic.phy80211p 	busyTime 	1.5286624203822e-05
scalar RSUExampleScenario.node[51].nic.mac1609_4 	ReceivedUnicastPackets 	0
scalar RSUExampleScenario.node[51].nic.mac1609_4 	ReceivedBroadcasts 	11
scalar RSUExampleScenario.node[51].nic.mac1609_4 	SentPackets 	1
scalar RSUExampleScenario.node[51].nic.mac1609_4 	SNIRLostPackets 	9
scalar RSUExampleScenario.node[51].nic.mac1609_4 	RXTXLostPackets 	0
scalar RSUExampleScenario.node[51].nic.mac1609_4 	TotalLostPackets 	9
scalar RSUExampleScenario.node[51].nic.mac1609_4 	DroppedPacketsInMac 	0
scalar RSUExampleScenario.node[51].nic.mac1609_4 	TooLittleTime 	0
scalar RSUExampleScenario.node[51].nic.mac1609_4 	TimesIntoBackoff 	1
scalar RSUExampleScenario.node[51].nic.mac1609_4 	SlotsBackoff 	6
scalar RSUExampleScenario.node[51].nic.mac1609_4 	NumInternalContention 	0
scalar RSUExampleScenario.node[51].nic.mac1609_4 	totalBusyTime 	0.006241
scalar RSUExampleScenario.node[51].veinsmobility 	startTime 	101
scalar RSUExampleScenario.node[51].veinsmobility 	totalTime 	627
scalar RSUExampleScenario.node[51].veinsmobility 	stopTime 	729
scalar RSUExampleScenario.node[51].veinsmobility 	minSpeed 	0
scalar RSUExampleScenario.node[51].veinsmobility 	maxSpeed 	27.728506324767
scalar RSUExampleScenario.node[51].veinsmobility 	totalDistance 	3402.0572991395
scalar RSUExampleScenario.node[51].veinsmobility 	totalCO2Emission 	1290.1647074506
scalar RSUExampleScenario.node[38].nic.phy80211p 	busyTime 	1.7401812688822e-05
scalar RSUExampleScenario.node[38].nic.mac1609_4 	ReceivedUnicastPackets 	0
scalar RSUExampleScenario.node[38].nic.mac1609_4 	ReceivedBroadcasts 	9
scalar RSUExampleScenario.node[38].nic.mac1609_4 	SentPackets 	1
scalar RSUExampleScenario.node[38].nic.mac1609_4 	SNIRLostPackets 	15
scalar RSUExampleScenario.node[38].nic.mac1609_4 	RXTXLostPackets 	2
scalar RSUExampleScenario.node[38].nic.mac1609_4 	TotalLostPackets 	17
scalar RSUExampleScenario.node[38].nic.mac1609_4 	DroppedPacketsInMac 	0
scalar RSUExampleScenario.node[38].nic.mac1609_4 	TooLittleTime 	0
scalar RSUExampleScenario.node[38].nic.mac1609_4 	TimesIntoBackoff 	2
scalar RSUExampleScenario.node[38].nic.mac1609_4 	SlotsBackoff 	2
scalar RSUExampleScenario.node[38].nic.mac1609_4 	NumInternalContention 	0
scalar RSUExampleScenario.node[38].nic.mac1609_4 	totalBusyTime 	0.00672108639
scalar RSUExampleScenario.node[38].veinsmobility 	startTime 	70
scalar RSUExampleScenario.node[38].veinsmobility 	totalTime 	661
scalar RSUExampleScenario.node[38].veinsmobility 	stopTime 	732
scalar RSUExampleScenario.node[38].veinsmobility 	minSpeed 	0
scalar RSUExampleScenario.node[38].veinsmobility 	maxSpeed 	16.669073561542
scalar RSUExampleScenario.node[38].veinsmobility 	totalDistance 	3250.7347680539
scalar RSUExampleScenario.node[38].veinsmobility 	totalCO2Emission 	1152.2405295418
scalar RSUExampleScenario.node[53].nic.phy80211p 	busyTime 	1.6050955414013e-05
scalar RSUExampleScenario.node[53].nic.mac1609_4 	ReceivedUnicastPackets 	0
scalar RSUExampleScenario.node[53].nic.mac1609_4 	ReceivedBroadcasts 	13
scalar RSUExampleScenario.node[53].nic.mac1609_4 	SentPackets 	1
scalar RSUExampleScenario.node[53].nic.mac1609_4 	SNIRLostPackets 	8
scalar RSUExampleScenario.node[53].nic.mac1609_4 	RXTXLostPackets 	0
scalar RSUExampleScenario.node[53].nic.mac1609_4 	TotalLostPackets 	8
scalar RSUExampleScenario.node[53].nic.mac1609_4 	DroppedPacketsInMac 	0
scalar RSUExampleScenario.node[53].nic.mac1609_4 	TooLittleTime 	0
scalar RSUExampleScenario.node[53].nic.mac1609_4 	TimesIntoBackoff 	1
scalar RSUExampleScenario.node[53].nic.mac1609_4 	SlotsBackoff 	3
scalar RSUExampleScenario.node[53].nic.mac1609_4 	NumInternalContention 	0
scalar RSUExampleScenario.node[53].nic.mac1609_4 	totalBusyTime 	0.006721
scalar RSUExampleScenario.node[53].veinsmobility 	startTime 	106
scalar RSUExampleScenario.node[53].veinsmobility 	totalTime 	627
scalar RSUExampleScenario.node[53].veinsmobility 	stopTime 	734
scalar RSUExampleScenario.node[53].veinsmobility 	minSpeed 	0
scalar RSUExampleScenario.node[53].veinsmobility 	maxSpeed 	27.775756611824
scalar RSUExampleScenario.node[53].veinsmobility 	totalDistance 	3395.3708979778
scalar RSUExampleScenario.node[53].veinsmobility 	totalCO2Emission 	1349.9012001577
scalar RSUExampleScenario.node[62].nic.phy80211p 	busyTime 	1.9639934533552e-05
scalar RSUExampleScenario.node[62].nic.mac1609_4 	ReceivedUnicastPackets 	0
scalar RSUExampleScenario.node[62].nic.mac1609_4 	ReceivedBroadcasts 	15
scalar RSUExampleScenario.node[62].nic.mac1609_4 	SentPackets 	1
scalar RSUExampleScenario.node[62].nic.mac1609_4 	SNIRLostPackets 	10
scalar RSUExampleScenario.node[62].nic.mac1609_4 	RXTXLostPackets 	5
scalar RSUExampleScenario.node[62].nic.mac1609_4 	TotalLostPackets 	15
scalar RSUExampleScenario.node[62].nic.mac1609_4 	DroppedPacketsInMac 	0
scalar RSUExampleScenario.node[62].nic.mac1609_4 	TooLittleTime 	0
scalar RSUExampleScenario.node[62].nic.mac1609_4 	TimesIntoBackoff 	2
scalar RSUExampleScenario.node[62].nic.mac1609_4 	SlotsBackoff 	3
scalar RSUExampleScenario.node[62].nic.mac1609_4 	NumInternalContention 	0
scalar RSUExampleScenario.node[62].nic.mac1609_4 	totalBusyTime 	0.008161197954
scalar RSUExampleScenario.node[62].veinsmobility 	startTime 	126
scalar RSUExampleScenario.node[62].veinsmobility 	totalTime 	610
scalar RSUExampleScenario.node[62].veinsmobility 	stopTime 	737
scalar RSUExampleScenario.node[62].veinsmobility 	minSpeed 	0
scalar RSUExampleScenario.node[62].veinsmobility 	maxSpeed 	27.70015502627
scalar RSUExampleScenario.node[62].veinsmobility 	totalDistance 	3400.8013120785
scalar RSUExampleScenario.node[62].veinsmobility 	totalCO2Emission 	1349.2762461779
scalar RSUExampleScenario.node[66].nic.phy80211p 	busyTime 	3.2582781456954e-05
scalar RSUExampleScenario.node[66].nic.mac1609_4 	ReceivedUnicastPackets 	0
scalar RSUExampleScenario.node[66].nic.mac1609_4 	ReceivedBroadcasts 	12
scalar RSUExampleScenario.node[66].nic.mac1609_4 	SentPackets 	1
scalar RSUExampleScenario.node[66].nic.mac1609_4 	SNIRLostPackets 	29
scalar RSUExampleScenario.node[66].nic.mac1609_4 	RXTXLostPackets 	0
scalar RSUExampleScenario.node[66].nic.mac1609_4 	TotalLostPackets 	29
scalar RSUExampleScenario.node[66].nic.mac1609_4 	DroppedPacketsInMac 	0
scalar RSUExampleScenario.node[66].nic.mac1609_4 	TooLittleTime 	0
scalar RSUExampleScenario.node[66].nic.mac1609_4 	TimesIntoBackoff 	2
scalar RSUExampleScenario.node[66].nic.mac1609_4 	SlotsBackoff 	14
scalar RSUExampleScenario.node[66].nic.mac1609_4 	NumInternalContention 	0
scalar RSUExampleScenario.node[66].nic.mac1609_4 	totalBusyTime 	0.009121
scalar RSUExampleScenario.node[66].veinsmobility 	startTime 	135
scalar RSUExampleScenario.node[66].veinsmobility 	totalTime 	603
scalar RSUExampleScenario.node[66].veinsmobility 	stopTime 	739
scalar RSUExampleScenario.node[66].veinsmobility 	minSpeed 	0
scalar RSUExampleScenario.node[66].veinsmobility 	maxSpeed 	27.770314687528
scalar RSUExampleScenario.node[66].veinsmobility 	totalDistance 	3403.6567067578
scalar RSUExampleScenario.node[66].veinsmobility 	totalCO2Emission 	1343.8231124686
scalar RSUExampleScenario.node[30].nic.phy80211p 	busyTime 	2.0291545189504e-05
scalar RSUExampleScenario.node[30].nic.mac1609_4 	ReceivedUnicastPackets 	0
scalar RSUExampleScenario.node[30].nic.mac1609_4 	ReceivedBroadcasts 	11
scalar RSUExampleScenario.node[30].nic.mac1609_4 	SentPackets 	1
scalar RSUExampleScenario.node[30].nic.mac1609_4 	SNIRLostPackets 	18
scalar RSUExampleScenario.node[30].nic.mac1609_4 	RXTXLostPackets 	2
scalar RSUExampleScenario.node[30].nic.mac1609_4 	TotalLostPackets 	20
scalar RSUExampleScenario.node[30].nic.mac1609_4 	DroppedPacketsInMac 	0
scalar RSUExampleScenario.node[30].nic.mac1609_4 	TooLittleTime 	0
scalar RSUExampleScenario.node[30].nic.mac1609_4 	TimesIntoBackoff 	2
scalar RSUExampleScenario.node[30].nic.mac1609_4 	SlotsBackoff 	7
scalar RSUExampleScenario.node[30].nic.mac1609_4 	NumInternalContention 	0
scalar RSUExampleScenario.node[30].nic.mac1609_4 	totalBusyTime 	0.007681137636
scalar RSUExampleScenario.node[30].veinsmobility 	startTime 	55
scalar RSUExampleScenario.node[30].veinsmobility 	totalTime 	685
scalar RSUExampleScenario.node[30].veinsmobility 	stopTime 	741
scalar RSUExampleScenario.node[30].veinsmobility 	minSpeed 	0
scalar RSUExampleScenario.node[30].veinsmobility 	maxSpeed 	16.650077707293
scalar RSUExampleScenario.node[30].veinsmobility 	totalDistance 	3250.3048204254
scalar RSUExampleScenario.node[30].veinsmobility 	totalCO2Emission 	1212.632099684
scalar RSUExampleScenario.node[35].nic.phy80211p 	busyTime 	1.8352941176471e-05
scalar RSUExampleScenario.node[35].nic.mac1609_4 	ReceivedUnicastPackets 	0
scalar RSUExampleScenario.node[35].nic.mac1609_4 	ReceivedBroadcasts 	9
scalar RSUExampleScenario.node[35].nic.mac1609_4 	SentPackets 	1
scalar RSUExampleScenario.node[35].nic.mac1609_4 	SNIRLostPackets 	17
scalar RSUExampleScenario.node[35].nic.mac1609_4 	RXTXLostPackets 	0
scalar RSUExampleScenario.node[35].nic.mac1609_4 	TotalLostPackets 	17
scalar RSUExampleScenario.node[35].nic.mac1609_4 	DroppedPacketsInMac 	0
scalar RSUExampleScenario.node[35].nic.mac1609_4 	TooLittleTime 	0
scalar RSUExampleScenario.node[35].nic.mac1609_4 	TimesIntoBackoff 	2
scalar RSUExampleScenario.node[35].nic.mac1609_4 	SlotsBackoff 	9
scalar RSUExampleScenario.node[35].nic.mac1609_4 	NumInternalContention 	0
scalar RSUExampleScenario.node[35].nic.mac1609_4 	totalBusyTime 	0.006721121064
scalar RSUExampleScenario.node[35].veinsmobility 	startTime 	64
scalar RSUExampleScenario.node[35].veinsmobility 	totalTime 	679
scalar RSUExampleScenario.node[35].veinsmobility 	stopTime 	744
scalar RSUExampleScenario.node[35].veinsmobility 	minSpeed 	0
scalar RSUExampleScenario.node[35].veinsmobility 	maxSpeed 	16.658830878097
scalar RSUExampleScenario.node[35].veinsmobility 	totalDistance 	3260.413938527
scalar RSUExampleScenario.node[35].veinsmobility 	totalCO2Emission 	1217.9215787034
scalar RSUExampleScenario.node[31].nic.phy80211p 	busyTime 	1.8086956521739e-05
scalar RSUExampleScenario.node[31].nic.mac1609_4 	ReceivedUnicastPackets 	0
scalar RSUExampleScenario.node[31].nic.mac1609_4 	ReceivedBroadcasts 	11
scalar RSUExampleScenario.node[31].nic.mac1609_4 	SentPackets 	1
scalar RSUExampleScenario.node[31].nic.mac1609_4 	SNIRLostPackets 	15
scalar RSUExampleScenario.node[31].nic.mac1609_4 	RXTXLostPackets 	5
scalar RSUExampleScenario.node[31].nic.mac1609_4 	TotalLostPackets 	20
scalar RSUExampleScenario.node[31].nic.mac1609_4 	DroppedPacketsInMac 	0
scalar RSUExampleScenario.node[31].nic.mac1609_4 	TooLittleTime 	0
scalar RSUExampleScenario.node[31].nic.mac1609_4 	TimesIntoBackoff 	2
scalar RSUExampleScenario.node[31].nic.mac1609_4 	SlotsBackoff 	7
scalar RSUExampleScenario.node[31].nic.mac1609_4 	NumInternalContention 	0
scalar RSUExampleScenario.node[31].nic.mac1609_4 	totalBusyTime 	0.007681020423
scalar RSUExampleScenario.node[31].veinsmobility 	startTime 	56
scalar RSUExampleScenario.node[31].veinsmobility 	totalTime 	689
scalar RSUExampleScenario.node[31].veinsmobility 	stopTime 	746
scalar RSUExampleScenario.node[31].veinsmobility 	minSpeed 	0
scalar RSUExampleScenario.node[31].veinsmobility 	maxSpeed 	16.650780659132
scalar RSUExampleScenario.node[31].veinsmobility 	totalDistance 	3256.9579069868
scalar RSUExampleScenario.node[31].veinsmobility 	totalCO2Emission 	1278.6557603511
scalar RSUExampleScenario.node[64].nic.phy80211p 	busyTime 	2.5631067961165e-05
scalar RSUExampleScenario.node[64].nic.mac1609_4 	ReceivedUnicastPackets 	0
scalar RSUExampleScenario.node[64].nic.mac1609_4 	ReceivedBroadcasts 	11
scalar RSUExampleScenario.node[64].nic.mac1609_4 	SentPackets 	1
scalar RSUExampleScenario.node[64].nic.mac1609_4 	SNIRLostPackets 	22
scalar RSUExampleScenario.node[64].nic.mac1609_4 	RXTXLostPackets 	0
scalar RSUExampleScenario.node[64].nic.mac1609_4 	TotalLostPackets 	22
scalar RSUExampleScenario.node[64].nic.mac1609_4 	DroppedPacketsInMac 	0
scalar RSUExampleScenario.node[64].nic.mac1609_4 	TooLittleTime 	0
scalar RSUExampleScenario.node[64].nic.mac1609_4 	TimesIntoBackoff 	2
scalar RSUExampleScenario.node[64].nic.mac1609_4 	SlotsBackoff 	14
scalar RSUExampleScenario.node[64].nic.mac1609_4 	NumInternalContention 	0
scalar RSUExampleScenario.node[64].nic.mac1609_4 	totalBusyTime 	0.008641236355
scalar RSUExampleScenario.node[64].veinsmobility 	startTime 	131
scalar RSUExampleScenario.node[64].veinsmobility 	totalTime 	617
scalar RSUExampleScenario.node[64].veinsmobility 	stopTime 	749
scalar RSUExampleScenario.node[64].veinsmobility 	minSpeed 	0
scalar RSUExampleScenario.node[64].veinsmobility 	maxSpeed 	27.760613630461
scalar RSUExampleScenario.node[64].veinsmobility 	totalDistance 	3404.3664290445
scalar RSUExampleScenario.node[64].veinsmobility 	totalCO2Emission 	1458.7635860458
scalar RSUExampleScenario.node[36].nic.phy80211p 	busyTime 	1.821897810219e-05
scalar RSUExampleScenario.node[36].nic.mac1609_4 	ReceivedUnicastPackets 	0
scalar RSUExampleScenario.node[36].nic.mac1609_4 	ReceivedBroadcasts 	9
scalar RSUExampleScenario.node[36].nic.mac1609_4 	SentPackets 	1
scalar RSUExampleScenario.node[36].nic.mac1609_4 	SNIRLostPackets 	17
scalar RSUExampleScenario.node[36].nic.mac1609_4 	RXTXLostPackets 	0
scalar RSUExampleScenario.node[36].nic.mac1609_4 	TotalLostPackets 	17
scalar RSUExampleScenario.node[36].nic.mac1609_4 	DroppedPacketsInMac 	0
scalar RSUExampleScenario.node[36].nic.mac1609_4 	TooLittleTime 	0
scalar RSUExampleScenario.node[36].nic.mac1609_4 	TimesIntoBackoff 	2
scalar RSUExampleScenario.node[36].nic.mac1609_4 	SlotsBackoff 	10
scalar RSUExampleScenario.node[36].nic.mac1609_4 	NumInternalContention 	0
scalar RSUExampleScenario.node[36].nic.mac1609_4 	totalBusyTime 	0.006721112051
scalar RSUExampleScenario.node[36].veinsmobility 	startTime 	66
scalar RSUExampleScenario.node[36].veinsmobility 	totalTime 	684
scalar RSUExampleScenario.node[36].veinsmobility 	stopTime 	751
scalar RSUExampleScenario.node[36].veinsmobility 	minSpeed 	0
scalar RSUExampleScenario.node[36].veinsmobility 	maxSpeed 	16.66903800766
scalar RSUExampleScenario.node[36].veinsmobility 	totalDistance 	3256.8246134678
scalar RSUExampleScenario.node[36].veinsmobility 	totalCO2Emission 	1217.4159887507
scalar RSUExampleScenario.node[68].nic.phy80211p 	busyTime 	3.2887438825449e-05
scalar RSUExampleScenario.node[68].nic.mac1609_4 	ReceivedUnicastPackets 	0
scalar RSUExampleScenario.node[68].nic.mac1609_4 	ReceivedBroadcasts 	14
scalar RSUExampleScenario.node[68].nic.mac1609_4 	SentPackets 	1
scalar RSUExampleScenario.node[68].nic.mac1609_4 	SNIRLostPackets 	27
scalar RSUExampleScenario.node[68].nic.mac1609_4 	RXTXLostPackets 	3
scalar RSUExampleScenario.node[68].nic.mac1609_4 	TotalLostPackets 	30
scalar RSUExampleScenario.node[68].nic.mac1609_4 	DroppedPacketsInMac 	0
scalar RSUExampleScenario.node[68].nic.mac1609_4 	TooLittleTime 	0
scalar RSUExampleScenario.node[68].nic.mac1609_4 	TimesIntoBackoff 	2
scalar RSUExampleScenario.node[68].nic.mac1609_4 	SlotsBackoff 	5
scalar RSUExampleScenario.node[68].nic.mac1609_4 	NumInternalContention 	0
scalar RSUExampleScenario.node[68].nic.mac1609_4 	totalBusyTime 	0.010561155332
scalar RSUExampleScenario.node[68].veinsmobility 	startTime 	140
scalar RSUExampleScenario.node[68].veinsmobility 	totalTime 	612
scalar RSUExampleScenario.node[68].veinsmobility 	stopTime 	753
scalar RSUExampleScenario.node[68].veinsmobility 	minSpeed 	0
scalar RSUExampleScenario.node[68].veinsmobility 	maxSpeed 	27.729882283499
scalar RSUExampleScenario.node[68].veinsmobility 	totalDistance 	3403.4458011106
scalar RSUExampleScenario.node[68].veinsmobility 	totalCO2Emission 	1373.1509572384
scalar RSUExampleScenario.node[32].nic.phy80211p 	busyTime 	1.512893982808e-05
scalar RSUExampleScenario.node[32].nic.mac1609_4 	ReceivedUnicastPackets 	0
scalar RSUExampleScenario.node[32].nic.mac1609_4 	ReceivedBroadcasts 	11
scalar RSUExampleScenario.node[32].nic.mac1609_4 	SentPackets 	1
scalar RSUExampleScenario.node[32].nic.mac1609_4 	SNIRLostPackets 	11
scalar RSUExampleScenario.node[32].nic.mac1609_4 	RXTXLostPackets 	5
scalar RSUExampleScenario.node[32].nic.mac1609_4 	TotalLostPackets 	16
scalar RSUExampleScenario.node[32].nic.mac1609_4 	DroppedPacketsInMac 	0
scalar RSUExampleScenario.node[32].nic.mac1609_4 	TooLittleTime 	0
scalar RSUExampleScenario.node[32].nic.mac1609_4 	TimesIntoBackoff 	2
scalar RSUExampleScenario.node[32].nic.mac1609_4 	SlotsBackoff 	5
scalar RSUExampleScenario.node[32].nic.mac1609_4 	NumInternalContention 	0
scalar RSUExampleScenario.node[32].nic.mac1609_4 	totalBusyTime 	0.007201061014
scalar RSUExampleScenario.node[32].veinsmobility 	startTime 	58
scalar RSUExampleScenario.node[32].veinsmobility 	totalTime 	697
scalar RSUExampleScenario.node[32].veinsmobility 	stopTime 	756
scalar RSUExampleScenario.node[32].veinsmobility 	minSpeed 	0
scalar RSUExampleScenario.node[32].veinsmobility 	maxSpeed 	16.658904112084
scalar RSUExampleScenario.node[32].veinsmobility 	totalDistance 	3264.0459710099
scalar RSUExampleScenario.node[32].veinsmobility 	totalCO2Emission 	1230.3295328869
scalar RSUExampleScenario.node[60].nic.phy80211p 	busyTime 	1.5070643642072e-05
scalar RSUExampleScenario.node[60].nic.mac1609_4 	ReceivedUnicastPackets 	0
scalar RSUExampleScenario.node[60].nic.mac1609_4 	ReceivedBroadcasts 	13
scalar RSUExampleScenario.node[60].nic.mac1609_4 	SentPackets 	1
scalar RSUExampleScenario.node[60].nic.mac1609_4 	SNIRLostPackets 	7
scalar RSUExampleScenario.node[60].nic.mac1609_4 	RXTXLostPackets 	5
scalar RSUExampleScenario.node[60].nic.mac1609_4 	TotalLostPackets 	12
scalar RSUExampleScenario.node[60].nic.mac1609_4 	DroppedPacketsInMac 	0
scalar RSUExampleScenario.node[60].nic.mac1609_4 	TooLittleTime 	0
scalar RSUExampleScenario.node[60].nic.mac1609_4 	TimesIntoBackoff 	2
scalar RSUExampleScenario.node[60].nic.mac1609_4 	SlotsBackoff 	12
scalar RSUExampleScenario.node[60].nic.mac1609_4 	NumInternalContention 	0
scalar RSUExampleScenario.node[60].nic.mac1609_4 	totalBusyTime 	0.007201001018
scalar RSUExampleScenario.node[60].veinsmobility 	startTime 	121
scalar RSUExampleScenario.node[60].veinsmobility 	totalTime 	636
scalar RSUExampleScenario.node[60].veinsmobility 	stopTime 	758
scalar RSUExampleScenario.node[60].veinsmobility 	minSpeed 	0
scalar RSUExampleScenario.node[60].veinsmobility 	maxSpeed 	27.774051807076
scalar RSUExampleScenario.node[60].veinsmobility 	totalDistance 	3402.4708741704
scalar RSUExampleScenario.node[60].veinsmobility 	totalCO2Emission 	1342.6980019037
scalar RSUExampleScenario.node[41].nic.phy80211p 	busyTime 	1.8245614035088e-05
scalar RSUExampleScenario.node[41].nic.mac1609_4 	ReceivedUnicastPackets 	0
scalar RSUExampleScenario.node[41].nic.mac1609_4 	ReceivedBroadcasts 	10
scalar RSUExampleScenario.node[41].nic.mac1609_4 	SentPackets 	1
scalar RSUExampleScenario.node[41].nic.mac1609_4 	SNIRLostPackets 	16
scalar RSUExampleScenario.node[41].nic.mac1609_4 	RXTXLostPackets 	1
scalar RSUExampleScenario.node[41].nic.mac1609_4 	TotalLostPackets 	17
scalar RSUExampleScenario.node[41].nic.mac1609_4 	DroppedPacketsInMac 	0
scalar RSUExampleScenario.node[41].nic.mac1609_4 	TooLittleTime 	0
scalar RSUExampleScenario.node[41].nic.mac1609_4 	TimesIntoBackoff 	2
scalar RSUExampleScenario.node[41].nic.mac1609_4 	SlotsBackoff 	6
scalar RSUExampleScenario.node[41].nic.mac1609_4 	NumInternalContention 	0
scalar RSUExampleScenario.node[41].nic.mac1609_4 	totalBusyTime 	0.007201226274
scalar RSUExampleScenario.node[41].veinsmobility 	startTime 	76
scalar RSUExampleScenario.node[41].veinsmobility 	totalTime 	683
scalar RSUExampleScenario.node[41].veinsmobility 	stopTime 	760
scalar RSUExampleScenario.node[41].veinsmobility 	minSpeed 	0
scalar RSUExampleScenario.node[41].veinsmobility 	maxSpeed 	16.669203685541
scalar RSUExampleScenario.node[41].veinsmobility 	totalDistance 	3248.9150499081
scalar RSUExampleScenario.node[41].veinsmobility 	totalCO2Emission 	1188.1402267799
scalar RSUExampleScenario.node[42].nic.phy80211p 	busyTime 	1.8919708029197e-05
scalar RSUExampleScenario.node[42].nic.mac1609_4 	ReceivedUnicastPackets 	0
scalar RSUExampleScenario.node[42].nic.mac1609_4 	ReceivedBroadcasts 	12
scalar RSUExampleScenario.node[42].nic.mac1609_4 	SentPackets 	1
scalar RSUExampleScenario.node[42].nic.mac1609_4 	SNIRLostPackets 	15
scalar RSUExampleScenario.node[42].nic.mac1609_4 	RXTXLostPackets 	1
scalar RSUExampleScenario.node[42].nic.mac1609_4 	TotalLostPackets 	16
scalar RSUExampleScenario.node[42].nic.mac1609_4 	DroppedPacketsInMac 	0
scalar RSUExampleScenario.node[42].nic.mac1609_4 	TooLittleTime 	0
scalar RSUExampleScenario.node[42].nic.mac1609_4 	TimesIntoBackoff 	2
scalar RSUExampleScenario.node[42].nic.mac1609_4 	SlotsBackoff 	6
scalar RSUExampleScenario.node[42].nic.mac1609_4 	NumInternalContention 	0
scalar RSUExampleScenario.node[42].nic.mac1609_4 	totalBusyTime 	0.007681345216
scalar RSUExampleScenario.node[42].veinsmobility 	startTime 	78
scalar RSUExampleScenario.node[42].veinsmobility 	totalTime 	684
scalar RSUExampleScenario.node[42].veinsmobility 	stopTime 	763
scalar RSUExampleScenario.node[42].veinsmobility 	minSpeed 	0
scalar RSUExampleScenario.node[42].veinsmobility 	maxSpeed 	16.664651014963
scalar RSUExampleScenario.node[42].veinsmobility 	totalDistance 	3255.770943687
scalar RSUExampleScenario.node[42].veinsmobility 	totalCO2Emission 	1190.0750960921
scalar RSUExampleScenario.node[56].nic.phy80211p 	busyTime 	1.4701378254211e-05
scalar RSUExampleScenario.node[56].nic.mac1609_4 	ReceivedUnicastPackets 	0
scalar RSUExampleScenario.node[56].nic.mac1609_4 	ReceivedBroadcasts 	12
scalar RSUExampleScenario.node[56].nic.mac1609_4 	SentPackets 	1
scalar RSUExampleScenario.node[56].nic.mac1609_4 	SNIRLostPackets 	8
scalar RSUExampleScenario.node[56].nic.mac1609_4 	RXTXLostPackets 	1
scalar RSUExampleScenario.node[56].nic.mac1609_4 	TotalLostPackets 	9
scalar RSUExampleScenario.node[56].nic.mac1609_4 	DroppedPacketsInMac 	0
scalar RSUExampleScenario.node[56].nic.mac1609_4 	TooLittleTime 	0
scalar RSUExampleScenario.node[56].nic.mac1609_4 	TimesIntoBackoff 	1
scalar RSUExampleScenario.node[56].nic.mac1609_4 	SlotsBackoff 	0
scalar RSUExampleScenario.node[56].nic.mac1609_4 	NumInternalContention 	0
scalar RSUExampleScenario.node[56].nic.mac1609_4 	totalBusyTime 	0.006721046686
scalar RSUExampleScenario.node[56].veinsmobility 	startTime 	112
scalar RSUExampleScenario.node[56].veinsmobility 	totalTime 	652
scalar RSUExampleScenario.node[56].veinsmobility 	stopTime 	765
scalar RSUExampleScenario.node[56].veinsmobility 	minSpeed 	0
scalar RSUExampleScenario.node[56].veinsmobility 	maxSpeed 	27.760795492399
scalar RSUExampleScenario.node[56].veinsmobility 	totalDistance 	3400.3920355418
scalar RSUExampleScenario.node[56].veinsmobility 	totalCO2Emission 	1350.4375953759
scalar RSUExampleScenario.node[45].nic.phy80211p 	busyTime 	2.1786237188873e-05
scalar RSUExampleScenario.node[45].nic.mac1609_4 	ReceivedUnicastPackets 	0
scalar RSUExampleScenario.node[45].nic.mac1609_4 	ReceivedBroadcasts 	21
scalar RSUExampleScenario.node[45].nic.mac1609_4 	SentPackets 	1
scalar RSUExampleScenario.node[45].nic.mac1609_4 	SNIRLostPackets 	10
scalar RSUExampleScenario.node[45].nic.mac1609_4 	RXTXLostPackets 	5
scalar RSUExampleScenario.node[45].nic.mac1609_4 	TotalLostPackets 	15
scalar RSUExampleScenario.node[45].nic.mac1609_4 	DroppedPacketsInMac 	0
scalar RSUExampleScenario.node[45].nic.mac1609_4 	TooLittleTime 	0
scalar RSUExampleScenario.node[45].nic.mac1609_4 	TimesIntoBackoff 	2
scalar RSUExampleScenario.node[45].nic.mac1609_4 	SlotsBackoff 	3
scalar RSUExampleScenario.node[45].nic.mac1609_4 	NumInternalContention 	0
scalar RSUExampleScenario.node[45].nic.mac1609_4 	totalBusyTime 	0.011041172873
scalar RSUExampleScenario.node[45].veinsmobility 	startTime 	88
scalar RSUExampleScenario.node[45].veinsmobility 	totalTime 	682
scalar RSUExampleScenario.node[45].veinsmobility 	stopTime 	771
scalar RSUExampleScenario.node[45].veinsmobility 	minSpeed 	0
scalar RSUExampleScenario.node[45].veinsmobility 	maxSpeed 	16.66755920713
scalar RSUExampleScenario.node[45].veinsmobility 	totalDistance 	3246.4330413523
scalar RSUExampleScenario.node[45].veinsmobility 	totalCO2Emission 	1091.5692190758
[...]
scalar RSUExampleScenario.node[379].veinsmobility 	maxSpeed 	27.779654425175
scalar RSUExampleScenario.node[379].veinsmobility 	totalDistance 	3392.4385953049
scalar RSUExampleScenario.node[379].veinsmobility 	totalCO2Emission 	1172.652432185
scalar RSUExampleScenario.node[380].nic.phy80211p 	busyTime 	8.2888540031397e-06
scalar RSUExampleScenario.node[380].nic.mac1609_4 	ReceivedUnicastPackets 	0
scalar RSUExampleScenario.node[380].nic.mac1609_4 	ReceivedBroadcasts 	10
scalar RSUExampleScenario.node[380].nic.mac1609_4 	SentPackets 	1
scalar RSUExampleScenario.node[380].nic.mac1609_4 	SNIRLostPackets 	1
scalar RSUExampleScenario.node[380].nic.mac1609_4 	RXTXLostPackets 	1
scalar RSUExampleScenario.node[380].nic.mac1609_4 	TotalLostPackets 	2
scalar RSUExampleScenario.node[380].nic.mac1609_4 	DroppedPacketsInMac 	0
scalar RSUExampleScenario.node[380].nic.mac1609_4 	TooLittleTime 	0
scalar RSUExampleScenario.node[380].nic.mac1609_4 	TimesIntoBackoff 	2
scalar RSUExampleScenario.node[380].nic.mac1609_4 	SlotsBackoff 	8
scalar RSUExampleScenario.node[380].nic.mac1609_4 	NumInternalContention 	0
scalar RSUExampleScenario.node[380].nic.mac1609_4 	totalBusyTime 	0.005281045038
scalar RSUExampleScenario.node[380].veinsmobility 	startTime 	1852
scalar RSUExampleScenario.node[380].veinsmobility 	totalTime 	636
scalar RSUExampleScenario.node[380].veinsmobility 	stopTime 	2489
scalar RSUExampleScenario.node[380].veinsmobility 	minSpeed 	0
scalar RSUExampleScenario.node[380].veinsmobility 	maxSpeed 	27.773225618635
scalar RSUExampleScenario.node[380].veinsmobility 	totalDistance 	3394.8384050645
scalar RSUExampleScenario.node[380].veinsmobility 	totalCO2Emission 	1172.9900336509
scalar RSUExampleScenario.node[381].nic.phy80211p 	busyTime 	8.2629107981221e-06
scalar RSUExampleScenario.node[381].nic.mac1609_4 	ReceivedUnicastPackets 	0
scalar RSUExampleScenario.node[381].nic.mac1609_4 	ReceivedBroadcasts 	10
scalar RSUExampleScenario.node[381].nic.mac1609_4 	SentPackets 	1
scalar RSUExampleScenario.node[381].nic.mac1609_4 	SNIRLostPackets 	1
scalar RSUExampleScenario.node[381].nic.mac1609_4 	RXTXLostPackets 	1
scalar RSUExampleScenario.node[381].nic.mac1609_4 	TotalLostPackets 	2
scalar RSUExampleScenario.node[381].nic.mac1609_4 	DroppedPacketsInMac 	0
scalar RSUExampleScenario.node[381].nic.mac1609_4 	TooLittleTime 	0
scalar RSUExampleScenario.node[381].nic.mac1609_4 	TimesIntoBackoff 	2
scalar RSUExampleScenario.node[381].nic.mac1609_4 	SlotsBackoff 	5
scalar RSUExampleScenario.node[381].nic.mac1609_4 	NumInternalContention 	0
scalar RSUExampleScenario.node[381].nic.mac1609_4 	totalBusyTime 	0.005281002285
scalar RSUExampleScenario.node[381].veinsmobility 	startTime 	1854
scalar RSUExampleScenario.node[381].veinsmobility 	totalTime 	638
scalar RSUExampleScenario.node[381].veinsmobility 	stopTime 	2493
scalar RSUExampleScenario.node[381].veinsmobility 	minSpeed 	0
scalar RSUExampleScenario.node[381].veinsmobility 	maxSpeed 	27.768322796584
scalar RSUExampleScenario.node[381].veinsmobility 	totalDistance 	3398.4934189839
scalar RSUExampleScenario.node[381].veinsmobility 	totalCO2Emission 	1180.7154865652
scalar RSUExampleScenario.node[382].nic.phy80211p 	busyTime 	9e-06
scalar RSUExampleScenario.node[382].nic.mac1609_4 	ReceivedUnicastPackets 	0
scalar RSUExampleScenario.node[382].nic.mac1609_4 	ReceivedBroadcasts 	10
scalar RSUExampleScenario.node[382].nic.mac1609_4 	SentPackets 	1
scalar RSUExampleScenario.node[382].nic.mac1609_4 	SNIRLostPackets 	2
scalar RSUExampleScenario.node[382].nic.mac1609_4 	RXTXLostPackets 	0
scalar RSUExampleScenario.node[382].nic.mac1609_4 	TotalLostPackets 	2
scalar RSUExampleScenario.node[382].nic.mac1609_4 	DroppedPacketsInMac 	0
scalar RSUExampleScenario.node[382].nic.mac1609_4 	TooLittleTime 	0
scalar RSUExampleScenario.node[382].nic.mac1609_4 	TimesIntoBackoff 	1
scalar RSUExampleScenario.node[382].nic.mac1609_4 	SlotsBackoff 	3
scalar RSUExampleScenario.node[382].nic.mac1609_4 	NumInternalContention 	0
scalar RSUExampleScenario.node[382].nic.mac1609_4 	totalBusyTime 	0.005281053302
scalar RSUExampleScenario.node[382].veinsmobility 	startTime 	1856
scalar RSUExampleScenario.node[382].veinsmobility 	totalTime 	639
scalar RSUExampleScenario.node[382].veinsmobility 	stopTime 	2496
scalar RSUExampleScenario.node[382].veinsmobility 	minSpeed 	0
scalar RSUExampleScenario.node[382].veinsmobility 	maxSpeed 	27.779005236962
scalar RSUExampleScenario.node[382].veinsmobility 	totalDistance 	3396.095814849
scalar RSUExampleScenario.node[382].veinsmobility 	totalCO2Emission 	1169.417516138
scalar RSUExampleScenario.node[384].nic.phy80211p 	busyTime 	9.0140845070423e-06
scalar RSUExampleScenario.node[384].nic.mac1609_4 	ReceivedUnicastPackets 	0
scalar RSUExampleScenario.node[384].nic.mac1609_4 	ReceivedBroadcasts 	10
scalar RSUExampleScenario.node[384].nic.mac1609_4 	SentPackets 	1
scalar RSUExampleScenario.node[384].nic.mac1609_4 	SNIRLostPackets 	2
scalar RSUExampleScenario.node[384].nic.mac1609_4 	RXTXLostPackets 	0
scalar RSUExampleScenario.node[384].nic.mac1609_4 	TotalLostPackets 	2
scalar RSUExampleScenario.node[384].nic.mac1609_4 	DroppedPacketsInMac 	0
scalar RSUExampleScenario.node[384].nic.mac1609_4 	TooLittleTime 	0
scalar RSUExampleScenario.node[384].nic.mac1609_4 	TimesIntoBackoff 	2
scalar RSUExampleScenario.node[384].nic.mac1609_4 	SlotsBackoff 	8
scalar RSUExampleScenario.node[384].nic.mac1609_4 	NumInternalContention 	0
scalar RSUExampleScenario.node[384].nic.mac1609_4 	totalBusyTime 	0.005281
scalar RSUExampleScenario.node[384].veinsmobility 	startTime 	1860
scalar RSUExampleScenario.node[384].veinsmobility 	totalTime 	638
scalar RSUExampleScenario.node[384].veinsmobility 	stopTime 	2499
scalar RSUExampleScenario.node[384].veinsmobility 	minSpeed 	0
scalar RSUExampleScenario.node[384].veinsmobility 	maxSpeed 	16.669699831752
scalar RSUExampleScenario.node[384].veinsmobility 	totalDistance 	3651.5797384955
scalar RSUExampleScenario.node[384].veinsmobility 	totalCO2Emission 	1183.460368467
scalar RSUExampleScenario.node[385].nic.phy80211p 	busyTime 	9.0140845070423e-06
scalar RSUExampleScenario.node[385].nic.mac1609_4 	ReceivedUnicastPackets 	0
scalar RSUExampleScenario.node[385].nic.mac1609_4 	ReceivedBroadcasts 	9
scalar RSUExampleScenario.node[385].nic.mac1609_4 	SentPackets 	1
scalar RSUExampleScenario.node[385].nic.mac1609_4 	SNIRLostPackets 	3
scalar RSUExampleScenario.node[385].nic.mac1609_4 	RXTXLostPackets 	0
scalar RSUExampleScenario.node[385].nic.mac1609_4 	TotalLostPackets 	3
scalar RSUExampleScenario.node[385].nic.mac1609_4 	DroppedPacketsInMac 	0
scalar RSUExampleScenario.node[385].nic.mac1609_4 	TooLittleTime 	0
scalar RSUExampleScenario.node[385].nic.mac1609_4 	TimesIntoBackoff 	1
scalar RSUExampleScenario.node[385].nic.mac1609_4 	SlotsBackoff 	7
scalar RSUExampleScenario.node[385].nic.mac1609_4 	NumInternalContention 	0
scalar RSUExampleScenario.node[385].nic.mac1609_4 	totalBusyTime 	0.005281
scalar RSUExampleScenario.node[385].veinsmobility 	startTime 	1863
scalar RSUExampleScenario.node[385].veinsmobility 	totalTime 	638
scalar RSUExampleScenario.node[385].veinsmobility 	stopTime 	2502
scalar RSUExampleScenario.node[385].veinsmobility 	minSpeed 	0
scalar RSUExampleScenario.node[385].veinsmobility 	maxSpeed 	16.662698268206
scalar RSUExampleScenario.node[385].veinsmobility 	totalDistance 	3645.2807889941
scalar RSUExampleScenario.node[385].veinsmobility 	totalCO2Emission 	1168.1366580187
scalar RSUExampleScenario.node[386].nic.phy80211p 	busyTime 	8.9859594383775e-06
scalar RSUExampleScenario.node[386].nic.mac1609_4 	ReceivedUnicastPackets 	0
scalar RSUExampleScenario.node[386].nic.mac1609_4 	ReceivedBroadcasts 	9
scalar RSUExampleScenario.node[386].nic.mac1609_4 	SentPackets 	1
scalar RSUExampleScenario.node[386].nic.mac1609_4 	SNIRLostPackets 	3
scalar RSUExampleScenario.node[386].nic.mac1609_4 	RXTXLostPackets 	0
scalar RSUExampleScenario.node[386].nic.mac1609_4 	TotalLostPackets 	3
scalar RSUExampleScenario.node[386].nic.mac1609_4 	DroppedPacketsInMac 	0
scalar RSUExampleScenario.node[386].nic.mac1609_4 	TooLittleTime 	0
scalar RSUExampleScenario.node[386].nic.mac1609_4 	TimesIntoBackoff 	2
scalar RSUExampleScenario.node[386].nic.mac1609_4 	SlotsBackoff 	10
scalar RSUExampleScenario.node[386].nic.mac1609_4 	NumInternalContention 	0
scalar RSUExampleScenario.node[386].nic.mac1609_4 	totalBusyTime 	0.005281
scalar RSUExampleScenario.node[386].veinsmobility 	startTime 	1865
scalar RSUExampleScenario.node[386].veinsmobility 	totalTime 	640
scalar RSUExampleScenario.node[386].veinsmobility 	stopTime 	2506
scalar RSUExampleScenario.node[386].veinsmobility 	minSpeed 	0
scalar RSUExampleScenario.node[386].veinsmobility 	maxSpeed 	16.668551180727
scalar RSUExampleScenario.node[386].veinsmobility 	totalDistance 	3650.9939659177
scalar RSUExampleScenario.node[386].veinsmobility 	totalCO2Emission 	1211.6167589703
scalar RSUExampleScenario.node[387].nic.phy80211p 	busyTime 	7.9878971255673e-06
scalar RSUExampleScenario.node[387].nic.mac1609_4 	ReceivedUnicastPackets 	0
scalar RSUExampleScenario.node[387].nic.mac1609_4 	ReceivedBroadcasts 	9
scalar RSUExampleScenario.node[387].nic.mac1609_4 	SentPackets 	1
scalar RSUExampleScenario.node[387].nic.mac1609_4 	SNIRLostPackets 	2
scalar RSUExampleScenario.node[387].nic.mac1609_4 	RXTXLostPackets 	1
scalar RSUExampleScenario.node[387].nic.mac1609_4 	TotalLostPackets 	3
scalar RSUExampleScenario.node[387].nic.mac1609_4 	DroppedPacketsInMac 	0
scalar RSUExampleScenario.node[387].nic.mac1609_4 	TooLittleTime 	0
scalar RSUExampleScenario.node[387].nic.mac1609_4 	TimesIntoBackoff 	1
scalar RSUExampleScenario.node[387].nic.mac1609_4 	SlotsBackoff 	6
scalar RSUExampleScenario.node[387].nic.mac1609_4 	NumInternalContention 	0
scalar RSUExampleScenario.node[387].nic.mac1609_4 	totalBusyTime 	0.005281
scalar RSUExampleScenario.node[387].veinsmobility 	startTime 	1867
scalar RSUExampleScenario.node[387].veinsmobility 	totalTime 	660
scalar RSUExampleScenario.node[387].veinsmobility 	stopTime 	2528
scalar RSUExampleScenario.node[387].veinsmobility 	minSpeed 	0
scalar RSUExampleScenario.node[387].veinsmobility 	maxSpeed 	16.669545722469
scalar RSUExampleScenario.node[387].veinsmobility 	totalDistance 	3651.022366926
scalar RSUExampleScenario.node[387].veinsmobility 	totalCO2Emission 	1221.6081688897
scalar RSUExampleScenario.node[388].nic.phy80211p 	busyTime 	8.6616541353383e-06
scalar RSUExampleScenario.node[388].nic.mac1609_4 	ReceivedUnicastPackets 	0
scalar RSUExampleScenario.node[388].nic.mac1609_4 	ReceivedBroadcasts 	9
scalar RSUExampleScenario.node[388].nic.mac1609_4 	SentPackets 	1
scalar RSUExampleScenario.node[388].nic.mac1609_4 	SNIRLostPackets 	3
scalar RSUExampleScenario.node[388].nic.mac1609_4 	RXTXLostPackets 	0
scalar RSUExampleScenario.node[388].nic.mac1609_4 	TotalLostPackets 	3
scalar RSUExampleScenario.node[388].nic.mac1609_4 	DroppedPacketsInMac 	0
scalar RSUExampleScenario.node[388].nic.mac1609_4 	TooLittleTime 	0
scalar RSUExampleScenario.node[388].nic.mac1609_4 	TimesIntoBackoff 	2
scalar RSUExampleScenario.node[388].nic.mac1609_4 	SlotsBackoff 	10
scalar RSUExampleScenario.node[388].nic.mac1609_4 	NumInternalContention 	0
scalar RSUExampleScenario.node[388].nic.mac1609_4 	totalBusyTime 	0.005281
scalar RSUExampleScenario.node[388].veinsmobility 	startTime 	1869
scalar RSUExampleScenario.node[388].veinsmobility 	totalTime 	664
scalar RSUExampleScenario.node[388].veinsmobility 	stopTime 	2534
scalar RSUExampleScenario.node[388].veinsmobility 	minSpeed 	0
scalar RSUExampleScenario.node[388].veinsmobility 	maxSpeed 	16.663490103229
scalar RSUExampleScenario.node[388].veinsmobility 	totalDistance 	3647.7958963377
scalar RSUExampleScenario.node[388].veinsmobility 	totalCO2Emission 	1198.4430623261
scalar RSUExampleScenario.node[383].nic.phy80211p 	busyTime 	7.7761413843888e-06
scalar RSUExampleScenario.node[383].nic.mac1609_4 	ReceivedUnicastPackets 	0
scalar RSUExampleScenario.node[383].nic.mac1609_4 	ReceivedBroadcasts 	10
scalar RSUExampleScenario.node[383].nic.mac1609_4 	SentPackets 	1
scalar RSUExampleScenario.node[383].nic.mac1609_4 	SNIRLostPackets 	1
scalar RSUExampleScenario.node[383].nic.mac1609_4 	RXTXLostPackets 	1
scalar RSUExampleScenario.node[383].nic.mac1609_4 	TotalLostPackets 	2
scalar RSUExampleScenario.node[383].nic.mac1609_4 	DroppedPacketsInMac 	0
scalar RSUExampleScenario.node[383].nic.mac1609_4 	TooLittleTime 	0
scalar RSUExampleScenario.node[383].nic.mac1609_4 	TimesIntoBackoff 	2
scalar RSUExampleScenario.node[383].nic.mac1609_4 	SlotsBackoff 	8
scalar RSUExampleScenario.node[383].nic.mac1609_4 	NumInternalContention 	0
scalar RSUExampleScenario.node[383].nic.mac1609_4 	totalBusyTime 	0.005281125118
scalar RSUExampleScenario.node[383].veinsmobility 	startTime 	1858
scalar RSUExampleScenario.node[383].veinsmobility 	totalTime 	678
scalar RSUExampleScenario.node[383].veinsmobility 	stopTime 	2537
scalar RSUExampleScenario.node[383].veinsmobility 	minSpeed 	0
scalar RSUExampleScenario.node[383].veinsmobility 	maxSpeed 	27.76051327634
scalar RSUExampleScenario.node[383].veinsmobility 	totalDistance 	3400.2150240532
scalar RSUExampleScenario.node[383].veinsmobility 	totalCO2Emission 	1239.9920493389
scalar RSUExampleScenario.node[389].nic.phy80211p 	busyTime 	8.609865470852e-06
scalar RSUExampleScenario.node[389].nic.mac1609_4 	ReceivedUnicastPackets 	0
scalar RSUExampleScenario.node[389].nic.mac1609_4 	ReceivedBroadcasts 	9
scalar RSUExampleScenario.node[389].nic.mac1609_4 	SentPackets 	1
scalar RSUExampleScenario.node[389].nic.mac1609_4 	SNIRLostPackets 	3
scalar RSUExampleScenario.node[389].nic.mac1609_4 	RXTXLostPackets 	0
scalar RSUExampleScenario.node[389].nic.mac1609_4 	TotalLostPackets 	3
scalar RSUExampleScenario.node[389].nic.mac1609_4 	DroppedPacketsInMac 	0
scalar RSUExampleScenario.node[389].nic.mac1609_4 	TooLittleTime 	0
scalar RSUExampleScenario.node[389].nic.mac1609_4 	TimesIntoBackoff 	2
scalar RSUExampleScenario.node[389].nic.mac1609_4 	SlotsBackoff 	2
scalar RSUExampleScenario.node[389].nic.mac1609_4 	NumInternalContention 	0
scalar RSUExampleScenario.node[389].nic.mac1609_4 	totalBusyTime 	0.005281
scalar RSUExampleScenario.node[389].veinsmobility 	startTime 	1871
scalar RSUExampleScenario.node[389].veinsmobility 	totalTime 	668
scalar RSUExampleScenario.node[389].veinsmobility 	stopTime 	2540
scalar RSUExampleScenario.node[389].veinsmobility 	minSpeed 	0
scalar RSUExampleScenario.node[389].veinsmobility 	maxSpeed 	16.65525280564
scalar RSUExampleScenario.node[389].veinsmobility 	totalDistance 	3648.4191313111
scalar RSUExampleScenario.node[389].veinsmobility 	totalCO2Emission 	1188.5302960469
scalar RSUExampleScenario.node[367].nic.phy80211p 	busyTime 	2.0782122905028e-05
scalar RSUExampleScenario.node[367].nic.mac1609_4 	ReceivedUnicastPackets 	0
scalar RSUExampleScenario.node[367].nic.mac1609_4 	ReceivedBroadcasts 	25
scalar RSUExampleScenario.node[367].nic.mac1609_4 	SentPackets 	1
scalar RSUExampleScenario.node[367].nic.mac1609_4 	SNIRLostPackets 	6
scalar RSUExampleScenario.node[367].nic.mac1609_4 	RXTXLostPackets 	0
scalar RSUExampleScenario.node[367].nic.mac1609_4 	TotalLostPackets 	6
scalar RSUExampleScenario.node[367].nic.mac1609_4 	DroppedPacketsInMac 	0
scalar RSUExampleScenario.node[367].nic.mac1609_4 	TooLittleTime 	0
scalar RSUExampleScenario.node[367].nic.mac1609_4 	TimesIntoBackoff 	2
scalar RSUExampleScenario.node[367].nic.mac1609_4 	SlotsBackoff 	9
scalar RSUExampleScenario.node[367].nic.mac1609_4 	NumInternalContention 	0
scalar RSUExampleScenario.node[367].nic.mac1609_4 	totalBusyTime 	0.012481092431
scalar RSUExampleScenario.node[367].veinsmobility 	startTime 	1826
scalar RSUExampleScenario.node[367].veinsmobility 	totalTime 	715
scalar RSUExampleScenario.node[367].veinsmobility 	stopTime 	2542
scalar RSUExampleScenario.node[367].veinsmobility 	minSpeed 	0
scalar RSUExampleScenario.node[367].veinsmobility 	maxSpeed 	16.660320577938
scalar RSUExampleScenario.node[367].veinsmobility 	totalDistance 	3750.7540072064
scalar RSUExampleScenario.node[367].veinsmobility 	totalCO2Emission 	1334.0709673379
scalar RSUExampleScenario.node[368].nic.phy80211p 	busyTime 	2.0055710306407e-05
scalar RSUExampleScenario.node[368].nic.mac1609_4 	ReceivedUnicastPackets 	0
scalar RSUExampleScenario.node[368].nic.mac1609_4 	ReceivedBroadcasts 	25
scalar RSUExampleScenario.node[368].nic.mac1609_4 	SentPackets 	1
scalar RSUExampleScenario.node[368].nic.mac1609_4 	SNIRLostPackets 	5
scalar RSUExampleScenario.node[368].nic.mac1609_4 	RXTXLostPackets 	1
scalar RSUExampleScenario.node[368].nic.mac1609_4 	TotalLostPackets 	6
scalar RSUExampleScenario.node[368].nic.mac1609_4 	DroppedPacketsInMac 	0
scalar RSUExampleScenario.node[368].nic.mac1609_4 	TooLittleTime 	0
scalar RSUExampleScenario.node[368].nic.mac1609_4 	TimesIntoBackoff 	2
scalar RSUExampleScenario.node[368].nic.mac1609_4 	SlotsBackoff 	5
scalar RSUExampleScenario.node[368].nic.mac1609_4 	NumInternalContention 	0
scalar RSUExampleScenario.node[368].nic.mac1609_4 	totalBusyTime 	0.012481058683
scalar RSUExampleScenario.node[368].veinsmobility 	startTime 	1828
scalar RSUExampleScenario.node[368].veinsmobility 	totalTime 	717
scalar RSUExampleScenario.node[368].veinsmobility 	stopTime 	2546
scalar RSUExampleScenario.node[368].veinsmobility 	minSpeed 	0
scalar RSUExampleScenario.node[368].veinsmobility 	maxSpeed 	16.668547770593
scalar RSUExampleScenario.node[368].veinsmobility 	totalDistance 	3762.1753527283
scalar RSUExampleScenario.node[368].veinsmobility 	totalCO2Emission 	1264.1794750456
scalar RSUExampleScenario.node[369].nic.phy80211p 	busyTime 	2.0666666666667e-05
scalar RSUExampleScenario.node[369].nic.mac1609_4 	ReceivedUnicastPackets 	0
scalar RSUExampleScenario.node[369].nic.mac1609_4 	ReceivedBroadcasts 	24
scalar RSUExampleScenario.node[369].nic.mac1609_4 	SentPackets 	1
scalar RSUExampleScenario.node[369].nic.mac1609_4 	SNIRLostPackets 	7
scalar RSUExampleScenario.node[369].nic.mac1609_4 	RXTXLostPackets 	0
scalar RSUExampleScenario.node[369].nic.mac1609_4 	TotalLostPackets 	7
scalar RSUExampleScenario.node[369].nic.mac1609_4 	DroppedPacketsInMac 	0
scalar RSUExampleScenario.node[369].nic.mac1609_4 	TooLittleTime 	0
scalar RSUExampleScenario.node[369].nic.mac1609_4 	TimesIntoBackoff 	2
scalar RSUExampleScenario.node[369].nic.mac1609_4 	SlotsBackoff 	3
scalar RSUExampleScenario.node[369].nic.mac1609_4 	NumInternalContention 	0
scalar RSUExampleScenario.node[369].nic.mac1609_4 	totalBusyTime 	0.012481022891
scalar RSUExampleScenario.node[369].veinsmobility 	startTime 	1830
scalar RSUExampleScenario.node[369].veinsmobility 	totalTime 	719
scalar RSUExampleScenario.node[369].veinsmobility 	stopTime 	2550
scalar RSUExampleScenario.node[369].veinsmobility 	minSpeed 	0
scalar RSUExampleScenario.node[369].veinsmobility 	maxSpeed 	16.669735908448
scalar RSUExampleScenario.node[369].veinsmobility 	totalDistance 	3765.633877327
scalar RSUExampleScenario.node[369].veinsmobility 	totalCO2Emission 	1270.8408452442
scalar RSUExampleScenario.rsu[0].nic.phy80211p 	busyTime 	6.72e-07
scalar RSUExampleScenario.rsu[0].nic.mac1609_4 	ReceivedUnicastPackets 	0
scalar RSUExampleScenario.rsu[0].nic.mac1609_4 	ReceivedBroadcasts 	10
scalar RSUExampleScenario.rsu[0].nic.mac1609_4 	SentPackets 	1
scalar RSUExampleScenario.rsu[0].nic.mac1609_4 	SNIRLostPackets 	4
scalar RSUExampleScenario.rsu[0].nic.mac1609_4 	RXTXLostPackets 	2
scalar RSUExampleScenario.rsu[0].nic.mac1609_4 	TotalLostPackets 	6
scalar RSUExampleScenario.rsu[0].nic.mac1609_4 	DroppedPacketsInMac 	0
scalar RSUExampleScenario.rsu[0].nic.mac1609_4 	TooLittleTime 	0
scalar RSUExampleScenario.rsu[0].nic.mac1609_4 	TimesIntoBackoff 	2
scalar RSUExampleScenario.rsu[0].nic.mac1609_4 	SlotsBackoff 	1
scalar RSUExampleScenario.rsu[0].nic.mac1609_4 	NumInternalContention 	0
scalar RSUExampleScenario.rsu[0].nic.mac1609_4 	totalBusyTime 	0.005761
