version 2
run debug-0-20170102-16:03:28-2638
attr configname debug
attr datetime 20170102-16:03:28
attr experiment debug
attr inifile omnetpp.ini
attr iterationvars ""
attr iterationvars2 $repetition=0
attr measurement ""
attr network RSUExampleScenario
attr processid 2638
attr repetition 0
attr replication #0
attr resultdir results
attr runnumber 0
attr seedset 0
param **.coreDebug false
param **.debug false
param *.**.nic.mac1609_4.bitrate 27Mbps
param *.**.nic.mac1609_4.txPower 20mW
param *.**.nic.mac1609_4.useServiceChannel false
param *.**.nic.phy80211p.analogueModels "xmldoc(\"config.xml\")"
param *.**.nic.phy80211p.decider "xmldoc(\"config.xml\")"
param *.**.nic.phy80211p.sensitivity -89dBm
param *.**.nic.phy80211p.thermalNoise -110dBm
param *.**.nic.phy80211p.usePropagationDelay true
param *.**.nic.phy80211p.useThermalNoise true
param *.annotations.draw false
param *.connectionManager.alpha 2.0
param *.connectionManager.carrierFrequency "5.890e9 Hz"
param *.connectionManager.pMax 12mW
param *.connectionManager.sat -89dBm
param *.connectionManager.sendDirect true
param *.manager.autoShutdown true
param *.manager.host "\"localhost\""
param *.manager.launchConfig "xmldoc(\"erlangen.launchd.xml\")"
param *.manager.margin 25
param *.manager.moduleDisplayString "\"\""
param *.manager.moduleName "\"node\""
param *.manager.moduleType "\"org.car2x.veins.nodes.Car\""
param *.manager.port 9999
param *.manager.updateInterval 1s
param *.node[*].appl.beaconInterval 1s
param *.node[*].appl.beaconPriority 3
param *.node[*].appl.dataOnSch false
param *.node[*].appl.dataPriority 2
param *.node[*].appl.debug false
param *.node[*].appl.headerLength "256 bit"
param *.node[*].appl.maxOffset 0.005s
param *.node[*].appl.sendBeacons false
param *.node[*].appl.sendData true
param *.node[*].applType "\"TraCIDemo11p\""
param *.node[*].mobilityType "\"TraCIMobility\""
param *.node[*].mobilityType.debug true
param *.node[*].veinsmobility.accidentCount 5
param *.node[*].veinsmobility.accidentDuration 43s
param *.node[*].veinsmobility.accidentStart 85s
param *.node[*].veinsmobility.x 0
param *.node[*].veinsmobility.y 0
param *.node[*].veinsmobility.z 1.895
param *.node[*].veinsmobilityType "\"org.car2x.veins.modules.mobility.traci.TraCIMobility\""
param *.node[*].veinsmobilityType.debug true
param *.obstacles.debug false
param *.obstacles.obstacles "xmldoc(\"config.xml\", \"//AnalogueModel[@type='SimpleObstacleShadowing']/obstacles\")"
param *.playgroundSizeX 2500m
param *.playgroundSizeY 2500m
param *.playgroundSizeZ 50m
param *.rsu[*].appl.beaconInterval 1s
param *.rsu[*].appl.beaconPriority 3
param *.rsu[*].appl.dataOnSch false
param *.rsu[*].appl.dataPriority 2
param *.rsu[*].appl.debug false
param *.rsu[*].appl.headerLength "256 bit"
param *.rsu[*].appl.maxOffset 0.005s
param *.rsu[*].appl.sendBeacons false
param *.rsu[*].appl.sendData true
param *.rsu[*].applType "\"TraCIDemoRSU11p\""
param *.rsu[0].mobility.x 2000
param *.rsu[0].mobility.y 2000
param *.rsu[0].mobility.z 3
param *.world.use2D false
param *.world.useTorus false

scalar RSUExampleScenario.node[0].nic.phy80211p 	busyTime 	0
scalar RSUExampleScenario.node[0].nic.mac1609_4 	ReceivedUnicastPackets 	0
scalar RSUExampleScenario.node[0].nic.mac1609_4 	ReceivedBroadcasts 	0
scalar RSUExampleScenario.node[0].nic.mac1609_4 	SentPackets 	1
scalar RSUExampleScenario.node[0].nic.mac1609_4 	SNIRLostPackets 	0
scalar RSUExampleScenario.node[0].nic.mac1609_4 	RXTXLostPackets 	0
scalar RSUExampleScenario.node[0].nic.mac1609_4 	TotalLostPackets 	0
scalar RSUExampleScenario.node[0].nic.mac1609_4 	DroppedPacketsInMac 	0
scalar RSUExampleScenario.node[0].nic.mac1609_4 	TooLittleTime 	0
scalar RSUExampleScenario.node[0].nic.mac1609_4 	TimesIntoBackoff 	1
scalar RSUExampleScenario.node[0].nic.mac1609_4 	SlotsBackoff 	3
scalar RSUExampleScenario.node[0].nic.mac1609_4 	NumInternalContention 	0
scalar RSUExampleScenario.node[0].nic.mac1609_4 	totalBusyTime 	9.7e-05
scalar RSUExampleScenario.node[0].veinsmobility 	startTime 	1
scalar RSUExampleScenario.node[0].veinsmobility 	totalTime 	328
scalar RSUExampleScenario.node[0].veinsmobility 	stopTime 	330
scalar RSUExampleScenario.node[0].veinsmobility 	minSpeed 	0
scalar RSUExampleScenario.node[0].veinsmobility 	maxSpeed 	27.768710480146
scalar RSUExampleScenario.node[0].veinsmobility 	totalDistance 	3393.3476673955
scalar RSUExampleScenario.node[0].veinsmobility 	totalCO2Emission 	942.96090565696
scalar RSUExampleScenario.node[6].nic.phy80211p 	busyTime 	4.7058823529412e-06
scalar RSUExampleScenario.node[6].nic.mac1609_4 	ReceivedUnicastPackets 	0
scalar RSUExampleScenario.node[6].nic.mac1609_4 	ReceivedBroadcasts 	14
scalar RSUExampleScenario.node[6].nic.mac1609_4 	SentPackets 	1
scalar RSUExampleScenario.node[6].nic.mac1609_4 	SNIRLostPackets 	6
scalar RSUExampleScenario.node[6].nic.mac1609_4 	RXTXLostPackets 	0
scalar RSUExampleScenario.node[6].nic.mac1609_4 	TotalLostPackets 	6
scalar RSUExampleScenario.node[6].nic.mac1609_4 	DroppedPacketsInMac 	0
scalar RSUExampleScenario.node[6].nic.mac1609_4 	TooLittleTime 	0
scalar RSUExampleScenario.node[6].nic.mac1609_4 	TimesIntoBackoff 	1
scalar RSUExampleScenario.node[6].nic.mac1609_4 	SlotsBackoff 	4
scalar RSUExampleScenario.node[6].nic.mac1609_4 	NumInternalContention 	0
scalar RSUExampleScenario.node[6].nic.mac1609_4 	totalBusyTime 	0.001729
scalar RSUExampleScenario.node[6].veinsmobility 	startTime 	12
scalar RSUExampleScenario.node[6].veinsmobility 	totalTime 	407
scalar RSUExampleScenario.node[6].veinsmobility 	stopTime 	420
scalar RSUExampleScenario.node[6].veinsmobility 	minSpeed 	0
scalar RSUExampleScenario.node[6].veinsmobility 	maxSpeed 	27.779343798762
scalar RSUExampleScenario.node[6].veinsmobility 	totalDistance 	3394.6633465407
scalar RSUExampleScenario.node[6].veinsmobility 	totalCO2Emission 	899.94055122566
scalar RSUExampleScenario.node[1].nic.phy80211p 	busyTime 	4.0851063829787e-06
scalar RSUExampleScenario.node[1].nic.mac1609_4 	ReceivedUnicastPackets 	0
scalar RSUExampleScenario.node[1].nic.mac1609_4 	ReceivedBroadcasts 	14
scalar RSUExampleScenario.node[1].nic.mac1609_4 	SentPackets 	1
scalar RSUExampleScenario.node[1].nic.mac1609_4 	SNIRLostPackets 	4
scalar RSUExampleScenario.node[1].nic.mac1609_4 	RXTXLostPackets 	0
scalar RSUExampleScenario.node[1].nic.mac1609_4 	TotalLostPackets 	4
scalar RSUExampleScenario.node[1].nic.mac1609_4 	DroppedPacketsInMac 	0
scalar RSUExampleScenario.node[1].nic.mac1609_4 	TooLittleTime 	0
scalar RSUExampleScenario.node[1].nic.mac1609_4 	TimesIntoBackoff 	2
scalar RSUExampleScenario.node[1].nic.mac1609_4 	SlotsBackoff 	8
scalar RSUExampleScenario.node[1].nic.mac1609_4 	NumInternalContention 	0
scalar RSUExampleScenario.node[1].nic.mac1609_4 	totalBusyTime 	0.001633
scalar RSUExampleScenario.node[1].veinsmobility 	startTime 	3
scalar RSUExampleScenario.node[1].veinsmobility 	totalTime 	422
scalar RSUExampleScenario.node[1].veinsmobility 	stopTime 	426
scalar RSUExampleScenario.node[1].veinsmobility 	minSpeed 	0
scalar RSUExampleScenario.node[1].veinsmobility 	maxSpeed 	27.778188040318
scalar RSUExampleScenario.node[1].veinsmobility 	totalDistance 	3393.4759157088
scalar RSUExampleScenario.node[1].veinsmobility 	totalCO2Emission 	977.65741512439
scalar RSUExampleScenario.node[2].nic.phy80211p 	busyTime 	4.0373831775701e-06
scalar RSUExampleScenario.node[2].nic.mac1609_4 	ReceivedUnicastPackets 	0
scalar RSUExampleScenario.node[2].nic.mac1609_4 	ReceivedBroadcasts 	14
scalar RSUExampleScenario.node[2].nic.mac1609_4 	SentPackets 	1
scalar RSUExampleScenario.node[2].nic.mac1609_4 	SNIRLostPackets 	4
scalar RSUExampleScenario.node[2].nic.mac1609_4 	RXTXLostPackets 	0
scalar RSUExampleScenario.node[2].nic.mac1609_4 	TotalLostPackets 	4
scalar RSUExampleScenario.node[2].nic.mac1609_4 	DroppedPacketsInMac 	0
scalar RSUExampleScenario.node[2].nic.mac1609_4 	TooLittleTime 	0
scalar RSUExampleScenario.node[2].nic.mac1609_4 	TimesIntoBackoff 	1
scalar RSUExampleScenario.node[2].nic.mac1609_4 	SlotsBackoff 	4
scalar RSUExampleScenario.node[2].nic.mac1609_4 	NumInternalContention 	0
scalar RSUExampleScenario.node[2].nic.mac1609_4 	totalBusyTime 	0.001633
scalar RSUExampleScenario.node[2].veinsmobility 	startTime 	5
scalar RSUExampleScenario.node[2].veinsmobility 	totalTime 	427
scalar RSUExampleScenario.node[2].veinsmobility 	stopTime 	433
scalar RSUExampleScenario.node[2].veinsmobility 	minSpeed 	0
scalar RSUExampleScenario.node[2].veinsmobility 	maxSpeed 	27.777677725879
scalar RSUExampleScenario.node[2].veinsmobility 	totalDistance 	3400.5370890275
scalar RSUExampleScenario.node[2].veinsmobility 	totalCO2Emission 	1082.6397781176
scalar RSUExampleScenario.node[4].nic.phy80211p 	busyTime 	4.0468384074941e-06
scalar RSUExampleScenario.node[4].nic.mac1609_4 	ReceivedUnicastPackets 	0
scalar RSUExampleScenario.node[4].nic.mac1609_4 	ReceivedBroadcasts 	14
scalar RSUExampleScenario.node[4].nic.mac1609_4 	SentPackets 	1
scalar RSUExampleScenario.node[4].nic.mac1609_4 	SNIRLostPackets 	4
scalar RSUExampleScenario.node[4].nic.mac1609_4 	RXTXLostPackets 	0
scalar RSUExampleScenario.node[4].nic.mac1609_4 	TotalLostPackets 	4
scalar RSUExampleScenario.node[4].nic.mac1609_4 	DroppedPacketsInMac 	0
scalar RSUExampleScenario.node[4].nic.mac1609_4 	TooLittleTime 	0
scalar RSUExampleScenario.node[4].nic.mac1609_4 	TimesIntoBackoff 	2
scalar RSUExampleScenario.node[4].nic.mac1609_4 	SlotsBackoff 	1
scalar RSUExampleScenario.node[4].nic.mac1609_4 	NumInternalContention 	0
scalar RSUExampleScenario.node[4].nic.mac1609_4 	totalBusyTime 	0.001633
scalar RSUExampleScenario.node[4].veinsmobility 	startTime 	8
scalar RSUExampleScenario.node[4].veinsmobility 	totalTime 	426
scalar RSUExampleScenario.node[4].veinsmobility 	stopTime 	435
scalar RSUExampleScenario.node[4].veinsmobility 	minSpeed 	0
scalar RSUExampleScenario.node[4].veinsmobility 	maxSpeed 	27.75182667057
scalar RSUExampleScenario.node[4].veinsmobility 	totalDistance 	3393.252031936
scalar RSUExampleScenario.node[4].veinsmobility 	totalCO2Emission 	1000.2129186367
scalar RSUExampleScenario.node[8].nic.phy80211p 	busyTime 	4.0938166311301e-06
scalar RSUExampleScenario.node[8].nic.mac1609_4 	ReceivedUnicastPackets 	0
scalar RSUExampleScenario.node[8].nic.mac1609_4 	ReceivedBroadcasts 	14
scalar RSUExampleScenario.node[8].nic.mac1609_4 	SentPackets 	1
scalar RSUExampleScenario.node[8].nic.mac1609_4 	SNIRLostPackets 	6
scalar RSUExampleScenario.node[8].nic.mac1609_4 	RXTXLostPackets 	0
scalar RSUExampleScenario.node[8].nic.mac1609_4 	TotalLostPackets 	6
scalar RSUExampleScenario.node[8].nic.mac1609_4 	DroppedPacketsInMac 	0
scalar RSUExampleScenario.node[8].nic.mac1609_4 	TooLittleTime 	0
scalar RSUExampleScenario.node[8].nic.mac1609_4 	TimesIntoBackoff 	1
scalar RSUExampleScenario.node[8].nic.mac1609_4 	SlotsBackoff 	4
scalar RSUExampleScenario.node[8].nic.mac1609_4 	NumInternalContention 	0
scalar RSUExampleScenario.node[8].nic.mac1609_4 	totalBusyTime 	0.001729
scalar RSUExampleScenario.node[8].veinsmobility 	startTime 	16
scalar RSUExampleScenario.node[8].veinsmobility 	totalTime 	468
scalar RSUExampleScenario.node[8].veinsmobility 	stopTime 	485
scalar RSUExampleScenario.node[8].veinsmobility 	minSpeed 	0
scalar RSUExampleScenario.node[8].veinsmobility 	maxSpeed 	27.773561144182
scalar RSUExampleScenario.node[8].veinsmobility 	totalDistance 	3389.4014302632
scalar RSUExampleScenario.node[8].veinsmobility 	totalCO2Emission 	1053.7803928919
scalar RSUExampleScenario.node[10].nic.phy80211p 	busyTime 	4.1912681912682e-06
scalar RSUExampleScenario.node[10].nic.mac1609_4 	ReceivedUnicastPackets 	0
scalar RSUExampleScenario.node[10].nic.mac1609_4 	ReceivedBroadcasts 	13
scalar RSUExampleScenario.node[10].nic.mac1609_4 	SentPackets 	1
scalar RSUExampleScenario.node[10].nic.mac1609_4 	SNIRLostPackets 	8
scalar RSUExampleScenario.node[10].nic.mac1609_4 	RXTXLostPackets 	0
scalar RSUExampleScenario.node[10].nic.mac1609_4 	TotalLostPackets 	8
scalar RSUExampleScenario.node[10].nic.mac1609_4 	DroppedPacketsInMac 	0
scalar RSUExampleScenario.node[10].nic.mac1609_4 	TooLittleTime 	0
scalar RSUExampleScenario.node[10].nic.mac1609_4 	TimesIntoBackoff 	2
scalar RSUExampleScenario.node[10].nic.mac1609_4 	SlotsBackoff 	9
scalar RSUExampleScenario.node[10].nic.mac1609_4 	NumInternalContention 	0
scalar RSUExampleScenario.node[10].nic.mac1609_4 	totalBusyTime 	0.001729
scalar RSUExampleScenario.node[10].veinsmobility 	startTime 	19
scalar RSUExampleScenario.node[10].veinsmobility 	totalTime 	480
scalar RSUExampleScenario.node[10].veinsmobility 	stopTime 	500
scalar RSUExampleScenario.node[10].veinsmobility 	minSpeed 	0
scalar RSUExampleScenario.node[10].veinsmobility 	maxSpeed 	27.751222434836
scalar RSUExampleScenario.node[10].veinsmobility 	totalDistance 	3403.5937031258
scalar RSUExampleScenario.node[10].veinsmobility 	totalCO2Emission 	1095.5442110914
scalar RSUExampleScenario.node[12].nic.phy80211p 	busyTime 	4.3726708074534e-06
scalar RSUExampleScenario.node[12].nic.mac1609_4 	ReceivedUnicastPackets 	0
scalar RSUExampleScenario.node[12].nic.mac1609_4 	ReceivedBroadcasts 	14
scalar RSUExampleScenario.node[12].nic.mac1609_4 	SentPackets 	1
scalar RSUExampleScenario.node[12].nic.mac1609_4 	SNIRLostPackets 	8
scalar RSUExampleScenario.node[12].nic.mac1609_4 	RXTXLostPackets 	1
scalar RSUExampleScenario.node[12].nic.mac1609_4 	TotalLostPackets 	9
scalar RSUExampleScenario.node[12].nic.mac1609_4 	DroppedPacketsInMac 	0
scalar RSUExampleScenario.node[12].nic.mac1609_4 	TooLittleTime 	0
scalar RSUExampleScenario.node[12].nic.mac1609_4 	TimesIntoBackoff 	1
scalar RSUExampleScenario.node[12].nic.mac1609_4 	SlotsBackoff 	6
scalar RSUExampleScenario.node[12].nic.mac1609_4 	NumInternalContention 	0
scalar RSUExampleScenario.node[12].nic.mac1609_4 	totalBusyTime 	0.001825
scalar RSUExampleScenario.node[12].veinsmobility 	startTime 	23
scalar RSUExampleScenario.node[12].veinsmobility 	totalTime 	482
scalar RSUExampleScenario.node[12].veinsmobility 	stopTime 	506
scalar RSUExampleScenario.node[12].veinsmobility 	minSpeed 	0
scalar RSUExampleScenario.node[12].veinsmobility 	maxSpeed 	27.772976816192
scalar RSUExampleScenario.node[12].veinsmobility 	totalDistance 	3392.2417445531
scalar RSUExampleScenario.node[12].veinsmobility 	totalCO2Emission 	967.06569352953
scalar RSUExampleScenario.node[11].nic.phy80211p 	busyTime 	4.080971659919e-06
scalar RSUExampleScenario.node[11].nic.mac1609_4 	ReceivedUnicastPackets 	0
scalar RSUExampleScenario.node[11].nic.mac1609_4 	ReceivedBroadcasts 	13
scalar RSUExampleScenario.node[11].nic.mac1609_4 	SentPackets 	1
scalar RSUExampleScenario.node[11].nic.mac1609_4 	SNIRLostPackets 	8
scalar RSUExampleScenario.node[11].nic.mac1609_4 	RXTXLostPackets 	0
scalar RSUExampleScenario.node[11].nic.mac1609_4 	TotalLostPackets 	8
scalar RSUExampleScenario.node[11].nic.mac1609_4 	DroppedPacketsInMac 	0
scalar RSUExampleScenario.node[11].nic.mac1609_4 	TooLittleTime 	0
scalar RSUExampleScenario.node[11].nic.mac1609_4 	TimesIntoBackoff 	2
scalar RSUExampleScenario.node[11].nic.mac1609_4 	SlotsBackoff 	4
scalar RSUExampleScenario.node[11].nic.mac1609_4 	NumInternalContention 	0
scalar RSUExampleScenario.node[11].nic.mac1609_4 	totalBusyTime 	0.001729
scalar RSUExampleScenario.node[11].veinsmobility 	startTime 	20
scalar RSUExampleScenario.node[11].veinsmobility 	totalTime 	493
scalar RSUExampleScenario.node[11].veinsmobility 	stopTime 	514
scalar RSUExampleScenario.node[11].veinsmobility 	minSpeed 	0
scalar RSUExampleScenario.node[11].veinsmobility 	maxSpeed 	27.749026262658
scalar RSUExampleScenario.node[11].veinsmobility 	totalDistance 	3397.2525803184
scalar RSUExampleScenario.node[11].veinsmobility 	totalCO2Emission 	1096.5388928525
scalar RSUExampleScenario.node[5].nic.phy80211p 	busyTime 	3.5834970530452e-06
scalar RSUExampleScenario.node[5].nic.mac1609_4 	ReceivedUnicastPackets 	0
scalar RSUExampleScenario.node[5].nic.mac1609_4 	ReceivedBroadcasts 	13
scalar RSUExampleScenario.node[5].nic.mac1609_4 	SentPackets 	1
scalar RSUExampleScenario.node[5].nic.mac1609_4 	SNIRLostPackets 	6
scalar RSUExampleScenario.node[5].nic.mac1609_4 	RXTXLostPackets 	0
scalar RSUExampleScenario.node[5].nic.mac1609_4 	TotalLostPackets 	6
scalar RSUExampleScenario.node[5].nic.mac1609_4 	DroppedPacketsInMac 	0
scalar RSUExampleScenario.node[5].nic.mac1609_4 	TooLittleTime 	0
scalar RSUExampleScenario.node[5].nic.mac1609_4 	TimesIntoBackoff 	1
scalar RSUExampleScenario.node[5].nic.mac1609_4 	SlotsBackoff 	5
scalar RSUExampleScenario.node[5].nic.mac1609_4 	NumInternalContention 	0
scalar RSUExampleScenario.node[5].nic.mac1609_4 	totalBusyTime 	0.001633
scalar RSUExampleScenario.node[5].veinsmobility 	startTime 	10
scalar RSUExampleScenario.node[5].veinsmobility 	totalTime 	508
scalar RSUExampleScenario.node[5].veinsmobility 	stopTime 	519
scalar RSUExampleScenario.node[5].veinsmobility 	minSpeed 	0
scalar RSUExampleScenario.node[5].veinsmobility 	maxSpeed 	27.763528873604
scalar RSUExampleScenario.node[5].veinsmobility 	totalDistance 	3396.738701924
scalar RSUExampleScenario.node[5].veinsmobility 	totalCO2Emission 	1131.4309609554
scalar RSUExampleScenario.node[9].nic.phy80211p 	busyTime 	3.8095238095238e-06
scalar RSUExampleScenario.node[9].nic.mac1609_4 	ReceivedUnicastPackets 	0
scalar RSUExampleScenario.node[9].nic.mac1609_4 	ReceivedBroadcasts 	14
scalar RSUExampleScenario.node[9].nic.mac1609_4 	SentPackets 	1
scalar RSUExampleScenario.node[9].nic.mac1609_4 	SNIRLostPackets 	6
scalar RSUExampleScenario.node[9].nic.mac1609_4 	RXTXLostPackets 	0
scalar RSUExampleScenario.node[9].nic.mac1609_4 	TotalLostPackets 	6
scalar RSUExampleScenario.node[9].nic.mac1609_4 	DroppedPacketsInMac 	0
scalar RSUExampleScenario.node[9].nic.mac1609_4 	TooLittleTime 	0
scalar RSUExampleScenario.node[9].nic.mac1609_4 	TimesIntoBackoff 	2
scalar RSUExampleScenario.node[9].nic.mac1609_4 	SlotsBackoff 	3
scalar RSUExampleScenario.node[9].nic.mac1609_4 	NumInternalContention 	0
scalar RSUExampleScenario.node[9].nic.mac1609_4 	totalBusyTime 	0.001729
scalar RSUExampleScenario.node[9].veinsmobility 	startTime 	17
scalar RSUExampleScenario.node[9].veinsmobility 	totalTime 	503
scalar RSUExampleScenario.node[9].veinsmobility 	stopTime 	521
scalar RSUExampleScenario.node[9].veinsmobility 	minSpeed 	0
scalar RSUExampleScenario.node[9].veinsmobility 	maxSpeed 	27.76204985423
scalar RSUExampleScenario.node[9].veinsmobility 	totalDistance 	3395.1687422171
scalar RSUExampleScenario.node[9].veinsmobility 	totalCO2Emission 	1092.4743175047
scalar RSUExampleScenario.node[7].nic.phy80211p 	busyTime 	3.7721021611002e-06
scalar RSUExampleScenario.node[7].nic.mac1609_4 	ReceivedUnicastPackets 	0
scalar RSUExampleScenario.node[7].nic.mac1609_4 	ReceivedBroadcasts 	14
scalar RSUExampleScenario.node[7].nic.mac1609_4 	SentPackets 	1
scalar RSUExampleScenario.node[7].nic.mac1609_4 	SNIRLostPackets 	6
scalar RSUExampleScenario.node[7].nic.mac1609_4 	RXTXLostPackets 	0
scalar RSUExampleScenario.node[7].nic.mac1609_4 	TotalLostPackets 	6
scalar RSUExampleScenario.node[7].nic.mac1609_4 	DroppedPacketsInMac 	0
scalar RSUExampleScenario.node[7].nic.mac1609_4 	TooLittleTime 	0
scalar RSUExampleScenario.node[7].nic.mac1609_4 	TimesIntoBackoff 	1
scalar RSUExampleScenario.node[7].nic.mac1609_4 	SlotsBackoff 	4
scalar RSUExampleScenario.node[7].nic.mac1609_4 	NumInternalContention 	0
scalar RSUExampleScenario.node[7].nic.mac1609_4 	totalBusyTime 	0.001729
scalar RSUExampleScenario.node[7].veinsmobility 	startTime 	14
scalar RSUExampleScenario.node[7].veinsmobility 	totalTime 	508
scalar RSUExampleScenario.node[7].veinsmobility 	stopTime 	523
scalar RSUExampleScenario.node[7].veinsmobility 	minSpeed 	0
scalar RSUExampleScenario.node[7].veinsmobility 	maxSpeed 	27.737601034408
scalar RSUExampleScenario.node[7].veinsmobility 	totalDistance 	3393.5517522973
scalar RSUExampleScenario.node[7].veinsmobility 	totalCO2Emission 	1157.1118895874
scalar RSUExampleScenario.node[3].nic.phy80211p 	busyTime 	3.2359550561798e-06
scalar RSUExampleScenario.node[3].nic.mac1609_4 	ReceivedUnicastPackets 	0
scalar RSUExampleScenario.node[3].nic.mac1609_4 	ReceivedBroadcasts 	14
scalar RSUExampleScenario.node[3].nic.mac1609_4 	SentPackets 	1
scalar RSUExampleScenario.node[3].nic.mac1609_4 	SNIRLostPackets 	4
scalar RSUExampleScenario.node[3].nic.mac1609_4 	RXTXLostPackets 	0
scalar RSUExampleScenario.node[3].nic.mac1609_4 	TotalLostPackets 	4
scalar RSUExampleScenario.node[3].nic.mac1609_4 	DroppedPacketsInMac 	0
scalar RSUExampleScenario.node[3].nic.mac1609_4 	TooLittleTime 	0
scalar RSUExampleScenario.node[3].nic.mac1609_4 	TimesIntoBackoff 	1
scalar RSUExampleScenario.node[3].nic.mac1609_4 	SlotsBackoff 	1
scalar RSUExampleScenario.node[3].nic.mac1609_4 	NumInternalContention 	0
scalar RSUExampleScenario.node[3].nic.mac1609_4 	totalBusyTime 	0.001633
scalar RSUExampleScenario.node[3].veinsmobility 	startTime 	7
scalar RSUExampleScenario.node[3].veinsmobility 	totalTime 	533
scalar RSUExampleScenario.node[3].veinsmobility 	stopTime 	541
scalar RSUExampleScenario.node[3].veinsmobility 	minSpeed 	0
scalar RSUExampleScenario.node[3].veinsmobility 	maxSpeed 	27.750909077181
scalar RSUExampleScenario.node[3].veinsmobility 	totalDistance 	3405.6764209408
scalar RSUExampleScenario.node[3].veinsmobility 	totalCO2Emission 	1154.0327738055
scalar RSUExampleScenario.node[15].nic.phy80211p 	busyTime 	4.8466019417476e-06
scalar RSUExampleScenario.node[15].nic.mac1609_4 	ReceivedUnicastPackets 	0
scalar RSUExampleScenario.node[15].nic.mac1609_4 	ReceivedBroadcasts 	15
scalar RSUExampleScenario.node[15].nic.mac1609_4 	SentPackets 	1
scalar RSUExampleScenario.node[15].nic.mac1609_4 	SNIRLostPackets 	10
scalar RSUExampleScenario.node[15].nic.mac1609_4 	RXTXLostPackets 	1
scalar RSUExampleScenario.node[15].nic.mac1609_4 	TotalLostPackets 	11
scalar RSUExampleScenario.node[15].nic.mac1609_4 	DroppedPacketsInMac 	0
scalar RSUExampleScenario.node[15].nic.mac1609_4 	TooLittleTime 	0
scalar RSUExampleScenario.node[15].nic.mac1609_4 	TimesIntoBackoff 	1
scalar RSUExampleScenario.node[15].nic.mac1609_4 	SlotsBackoff 	4
scalar RSUExampleScenario.node[15].nic.mac1609_4 	NumInternalContention 	0
scalar RSUExampleScenario.node[15].nic.mac1609_4 	totalBusyTime 	0.002017
scalar RSUExampleScenario.node[15].veinsmobility 	startTime 	28
scalar RSUExampleScenario.node[15].veinsmobility 	totalTime 	514
scalar RSUExampleScenario.node[15].veinsmobility 	stopTime 	543
scalar RSUExampleScenario.node[15].veinsmobility 	minSpeed 	0
scalar RSUExampleScenario.node[15].veinsmobility 	maxSpeed 	27.767863670643
scalar RSUExampleScenario.node[15].veinsmobility 	totalDistance 	3400.0344547543
scalar RSUExampleScenario.node[15].veinsmobility 	totalCO2Emission 	1105.4043457502
scalar RSUExampleScenario.node[13].nic.phy80211p 	busyTime 	4.4222648752399e-06
scalar RSUExampleScenario.node[13].nic.mac1609_4 	ReceivedUnicastPackets 	0
scalar RSUExampleScenario.node[13].nic.mac1609_4 	ReceivedBroadcasts 	14
scalar RSUExampleScenario.node[13].nic.mac1609_4 	SentPackets 	1
scalar RSUExampleScenario.node[13].nic.mac1609_4 	SNIRLostPackets 	10
scalar RSUExampleScenario.node[13].nic.mac1609_4 	RXTXLostPackets 	0
scalar RSUExampleScenario.node[13].nic.mac1609_4 	TotalLostPackets 	10
scalar RSUExampleScenario.node[13].nic.mac1609_4 	DroppedPacketsInMac 	0
scalar RSUExampleScenario.node[13].nic.mac1609_4 	TooLittleTime 	0
scalar RSUExampleScenario.node[13].nic.mac1609_4 	TimesIntoBackoff 	1
scalar RSUExampleScenario.node[13].nic.mac1609_4 	SlotsBackoff 	2
scalar RSUExampleScenario.node[13].nic.mac1609_4 	NumInternalContention 	0
scalar RSUExampleScenario.node[13].nic.mac1609_4 	totalBusyTime 	0.001921021343
scalar RSUExampleScenario.node[13].veinsmobility 	startTime 	25
scalar RSUExampleScenario.node[13].veinsmobility 	totalTime 	520
scalar RSUExampleScenario.node[13].veinsmobility 	stopTime 	546
scalar RSUExampleScenario.node[13].veinsmobility 	minSpeed 	0
scalar RSUExampleScenario.node[13].veinsmobility 	maxSpeed 	27.773450012803
scalar RSUExampleScenario.node[13].veinsmobility 	totalDistance 	3400.3955860097
scalar RSUExampleScenario.node[13].veinsmobility 	totalCO2Emission 	1117.426680389
scalar RSUExampleScenario.node[17].nic.phy80211p 	busyTime 	4.2707930367505e-06
scalar RSUExampleScenario.node[17].nic.mac1609_4 	ReceivedUnicastPackets 	0
scalar RSUExampleScenario.node[17].nic.mac1609_4 	ReceivedBroadcasts 	17
scalar RSUExampleScenario.node[17].nic.mac1609_4 	SentPackets 	1
scalar RSUExampleScenario.node[17].nic.mac1609_4 	SNIRLostPackets 	6
scalar RSUExampleScenario.node[17].nic.mac1609_4 	RXTXLostPackets 	2
scalar RSUExampleScenario.node[17].nic.mac1609_4 	TotalLostPackets 	8
scalar RSUExampleScenario.node[17].nic.mac1609_4 	DroppedPacketsInMac 	0
scalar RSUExampleScenario.node[17].nic.mac1609_4 	TooLittleTime 	0
scalar RSUExampleScenario.node[17].nic.mac1609_4 	TimesIntoBackoff 	1
scalar RSUExampleScenario.node[17].nic.mac1609_4 	SlotsBackoff 	6
scalar RSUExampleScenario.node[17].nic.mac1609_4 	NumInternalContention 	0
scalar RSUExampleScenario.node[17].nic.mac1609_4 	totalBusyTime 	0.002017
scalar RSUExampleScenario.node[17].veinsmobility 	startTime 	31
scalar RSUExampleScenario.node[17].veinsmobility 	totalTime 	516
scalar RSUExampleScenario.node[17].veinsmobility 	stopTime 	548
scalar RSUExampleScenario.node[17].veinsmobility 	minSpeed 	0
scalar RSUExampleScenario.node[17].veinsmobility 	maxSpeed 	27.756701981639
scalar RSUExampleScenario.node[17].veinsmobility 	totalDistance 	3395.1514469627
scalar RSUExampleScenario.node[17].veinsmobility 	totalCO2Emission 	1137.3983660925
scalar RSUExampleScenario.node[14].nic.phy80211p 	busyTime 	4.7724665391969e-06
scalar RSUExampleScenario.node[14].nic.mac1609_4 	ReceivedUnicastPackets 	0
scalar RSUExampleScenario.node[14].nic.mac1609_4 	ReceivedBroadcasts 	15
scalar RSUExampleScenario.node[14].nic.mac1609_4 	SentPackets 	1
scalar RSUExampleScenario.node[14].nic.mac1609_4 	SNIRLostPackets 	11
scalar RSUExampleScenario.node[14].nic.mac1609_4 	RXTXLostPackets 	0
scalar RSUExampleScenario.node[14].nic.mac1609_4 	TotalLostPackets 	11
scalar RSUExampleScenario.node[14].nic.mac1609_4 	DroppedPacketsInMac 	0
scalar RSUExampleScenario.node[14].nic.mac1609_4 	TooLittleTime 	0
scalar RSUExampleScenario.node[14].nic.mac1609_4 	TimesIntoBackoff 	1
scalar RSUExampleScenario.node[14].nic.mac1609_4 	SlotsBackoff 	3
scalar RSUExampleScenario.node[14].nic.mac1609_4 	NumInternalContention 	0
scalar RSUExampleScenario.node[14].nic.mac1609_4 	totalBusyTime 	0.002017
scalar RSUExampleScenario.node[14].veinsmobility 	startTime 	27
scalar RSUExampleScenario.node[14].veinsmobility 	totalTime 	522
scalar RSUExampleScenario.node[14].veinsmobility 	stopTime 	550
scalar RSUExampleScenario.node[14].veinsmobility 	minSpeed 	0
scalar RSUExampleScenario.node[14].veinsmobility 	maxSpeed 	27.770110275866
scalar RSUExampleScenario.node[14].veinsmobility 	totalDistance 	3394.1981133665
scalar RSUExampleScenario.node[14].veinsmobility 	totalCO2Emission 	1195.5363461505
scalar RSUExampleScenario.node[18].nic.phy80211p 	busyTime 	4.8e-06
scalar RSUExampleScenario.node[18].nic.mac1609_4 	ReceivedUnicastPackets 	0
scalar RSUExampleScenario.node[18].nic.mac1609_4 	ReceivedBroadcasts 	17
scalar RSUExampleScenario.node[18].nic.mac1609_4 	SentPackets 	1
scalar RSUExampleScenario.node[18].nic.mac1609_4 	SNIRLostPackets 	9
scalar RSUExampleScenario.node[18].nic.mac1609_4 	RXTXLostPackets 	0
scalar RSUExampleScenario.node[18].nic.mac1609_4 	TotalLostPackets 	9
scalar RSUExampleScenario.node[18].nic.mac1609_4 	DroppedPacketsInMac 	0
scalar RSUExampleScenario.node[18].nic.mac1609_4 	TooLittleTime 	0
scalar RSUExampleScenario.node[18].nic.mac1609_4 	TimesIntoBackoff 	1
scalar RSUExampleScenario.node[18].nic.mac1609_4 	SlotsBackoff 	2
scalar RSUExampleScenario.node[18].nic.mac1609_4 	NumInternalContention 	0
scalar RSUExampleScenario.node[18].nic.mac1609_4 	totalBusyTime 	0.002113
scalar RSUExampleScenario.node[18].veinsmobility 	startTime 	33
scalar RSUExampleScenario.node[18].veinsmobility 	totalTime 	519
scalar RSUExampleScenario.node[18].veinsmobility 	stopTime 	553
scalar RSUExampleScenario.node[18].veinsmobility 	minSpeed 	0
scalar RSUExampleScenario.node[18].veinsmobility 	maxSpeed 	27.751253866982
scalar RSUExampleScenario.node[18].veinsmobility 	totalDistance 	3405.2389698947
scalar RSUExampleScenario.node[18].veinsmobility 	totalCO2Emission 	1120.6484937383
scalar RSUExampleScenario.node[33].nic.phy80211p 	busyTime 	5.7831325301205e-06
scalar RSUExampleScenario.node[33].nic.mac1609_4 	ReceivedUnicastPackets 	0
scalar RSUExampleScenario.node[33].nic.mac1609_4 	ReceivedBroadcasts 	24
scalar RSUExampleScenario.node[33].nic.mac1609_4 	SentPackets 	1
scalar RSUExampleScenario.node[33].nic.mac1609_4 	SNIRLostPackets 	6
scalar RSUExampleScenario.node[33].nic.mac1609_4 	RXTXLostPackets 	0
scalar RSUExampleScenario.node[33].nic.mac1609_4 	TotalLostPackets 	6
scalar RSUExampleScenario.node[33].nic.mac1609_4 	DroppedPacketsInMac 	0
scalar RSUExampleScenario.node[33].nic.mac1609_4 	TooLittleTime 	0
scalar RSUExampleScenario.node[33].nic.mac1609_4 	TimesIntoBackoff 	1
scalar RSUExampleScenario.node[33].nic.mac1609_4 	SlotsBackoff 	7
scalar RSUExampleScenario.node[33].nic.mac1609_4 	NumInternalContention 	0
scalar RSUExampleScenario.node[33].nic.mac1609_4 	totalBusyTime 	0.002689
scalar RSUExampleScenario.node[33].veinsmobility 	startTime 	60
scalar RSUExampleScenario.node[33].veinsmobility 	totalTime 	497
scalar RSUExampleScenario.node[33].veinsmobility 	stopTime 	558
scalar RSUExampleScenario.node[33].veinsmobility 	minSpeed 	0
scalar RSUExampleScenario.node[33].veinsmobility 	maxSpeed 	27.754512508195
scalar RSUExampleScenario.node[33].veinsmobility 	totalDistance 	3395.7631486747
scalar RSUExampleScenario.node[33].veinsmobility 	totalCO2Emission 	1284.6813284638
scalar RSUExampleScenario.node[16].nic.phy80211p 	busyTime 	4.3065420560748e-06
scalar RSUExampleScenario.node[16].nic.mac1609_4 	ReceivedUnicastPackets 	0
scalar RSUExampleScenario.node[16].nic.mac1609_4 	ReceivedBroadcasts 	16
scalar RSUExampleScenario.node[16].nic.mac1609_4 	SentPackets 	1
scalar RSUExampleScenario.node[16].nic.mac1609_4 	SNIRLostPackets 	8
scalar RSUExampleScenario.node[16].nic.mac1609_4 	RXTXLostPackets 	2
scalar RSUExampleScenario.node[16].nic.mac1609_4 	TotalLostPackets 	10
scalar RSUExampleScenario.node[16].nic.mac1609_4 	DroppedPacketsInMac 	0
scalar RSUExampleScenario.node[16].nic.mac1609_4 	TooLittleTime 	0
scalar RSUExampleScenario.node[16].nic.mac1609_4 	TimesIntoBackoff 	1
scalar RSUExampleScenario.node[16].nic.mac1609_4 	SlotsBackoff 	1
scalar RSUExampleScenario.node[16].nic.mac1609_4 	NumInternalContention 	0
scalar RSUExampleScenario.node[16].nic.mac1609_4 	totalBusyTime 	0.002017
scalar RSUExampleScenario.node[16].veinsmobility 	startTime 	30
scalar RSUExampleScenario.node[16].veinsmobility 	totalTime 	534
scalar RSUExampleScenario.node[16].veinsmobility 	stopTime 	565
scalar RSUExampleScenario.node[16].veinsmobility 	minSpeed 	0
scalar RSUExampleScenario.node[16].veinsmobility 	maxSpeed 	27.750498325201
scalar RSUExampleScenario.node[16].veinsmobility 	totalDistance 	3395.2005180483
scalar RSUExampleScenario.node[16].veinsmobility 	totalCO2Emission 	1159.3763675636
scalar RSUExampleScenario.node[39].nic.phy80211p 	busyTime 	8e-06
scalar RSUExampleScenario.node[39].nic.mac1609_4 	ReceivedUnicastPackets 	0
scalar RSUExampleScenario.node[39].nic.mac1609_4 	ReceivedBroadcasts 	36
scalar RSUExampleScenario.node[39].nic.mac1609_4 	SentPackets 	1
scalar RSUExampleScenario.node[39].nic.mac1609_4 	SNIRLostPackets 	6
scalar RSUExampleScenario.node[39].nic.mac1609_4 	RXTXLostPackets 	0
scalar RSUExampleScenario.node[39].nic.mac1609_4 	TotalLostPackets 	6
scalar RSUExampleScenario.node[39].nic.mac1609_4 	DroppedPacketsInMac 	0
scalar RSUExampleScenario.node[39].nic.mac1609_4 	TooLittleTime 	0
scalar RSUExampleScenario.node[39].nic.mac1609_4 	TimesIntoBackoff 	1
scalar RSUExampleScenario.node[39].nic.mac1609_4 	SlotsBackoff 	2
scalar RSUExampleScenario.node[39].nic.mac1609_4 	NumInternalContention 	0
scalar RSUExampleScenario.node[39].nic.mac1609_4 	totalBusyTime 	0.003841
scalar RSUExampleScenario.node[39].veinsmobility 	startTime 	72
scalar RSUExampleScenario.node[39].veinsmobility 	totalTime 	503
scalar RSUExampleScenario.node[39].veinsmobility 	stopTime 	576
scalar RSUExampleScenario.node[39].veinsmobility 	minSpeed 	0
scalar RSUExampleScenario.node[39].veinsmobility 	maxSpeed 	27.768704502573
scalar RSUExampleScenario.node[39].veinsmobility 	totalDistance 	3398.8487327484
scalar RSUExampleScenario.node[39].veinsmobility 	totalCO2Emission 	1268.5913398305
scalar RSUExampleScenario.node[19].nic.phy80211p 	busyTime 	4.4117647058824e-06
scalar RSUExampleScenario.node[19].nic.mac1609_4 	ReceivedUnicastPackets 	0
scalar RSUExampleScenario.node[19].nic.mac1609_4 	ReceivedBroadcasts 	14
scalar RSUExampleScenario.node[19].nic.mac1609_4 	SentPackets 	1
scalar RSUExampleScenario.node[19].nic.mac1609_4 	SNIRLostPackets 	11
scalar RSUExampleScenario.node[19].nic.mac1609_4 	RXTXLostPackets 	1
scalar RSUExampleScenario.node[19].nic.mac1609_4 	TotalLostPackets 	12
scalar RSUExampleScenario.node[19].nic.mac1609_4 	DroppedPacketsInMac 	0
scalar RSUExampleScenario.node[19].nic.mac1609_4 	TooLittleTime 	0
scalar RSUExampleScenario.node[19].nic.mac1609_4 	TimesIntoBackoff 	1
scalar RSUExampleScenario.node[19].nic.mac1609_4 	SlotsBackoff 	2
scalar RSUExampleScenario.node[19].nic.mac1609_4 	NumInternalContention 	0
scalar RSUExampleScenario.node[19].nic.mac1609_4 	totalBusyTime 	0.001921
scalar RSUExampleScenario.node[19].veinsmobility 	startTime 	34
scalar RSUExampleScenario.node[19].veinsmobility 	totalTime 	543
scalar RSUExampleScenario.node[19].veinsmobility 	stopTime 	578
scalar RSUExampleScenario.node[19].veinsmobility 	minSpeed 	0
scalar RSUExampleScenario.node[19].veinsmobility 	maxSpeed 	27.754203486498
scalar RSUExampleScenario.node[19].veinsmobility 	totalDistance 	3397.8047033351
scalar RSUExampleScenario.node[19].veinsmobility 	totalCO2Emission 	1299.7356994422
scalar RSUExampleScenario.node[55].nic.phy80211p 	busyTime 	3.9375e-06
scalar RSUExampleScenario.node[55].nic.mac1609_4 	ReceivedUnicastPackets 	0
scalar RSUExampleScenario.node[55].nic.mac1609_4 	ReceivedBroadcasts 	17
scalar RSUExampleScenario.node[55].nic.mac1609_4 	SentPackets 	1
scalar RSUExampleScenario.node[55].nic.mac1609_4 	SNIRLostPackets 	4
scalar RSUExampleScenario.node[55].nic.mac1609_4 	RXTXLostPackets 	0
scalar RSUExampleScenario.node[55].nic.mac1609_4 	TotalLostPackets 	4
scalar RSUExampleScenario.node[55].nic.mac1609_4 	DroppedPacketsInMac 	0
scalar RSUExampleScenario.node[55].nic.mac1609_4 	TooLittleTime 	0
scalar RSUExampleScenario.node[55].nic.mac1609_4 	TimesIntoBackoff 	1
scalar RSUExampleScenario.node[55].nic.mac1609_4 	SlotsBackoff 	4
scalar RSUExampleScenario.node[55].nic.mac1609_4 	NumInternalContention 	0
scalar RSUExampleScenario.node[55].nic.mac1609_4 	totalBusyTime 	0.001921
scalar RSUExampleScenario.node[55].veinsmobility 	startTime 	110
scalar RSUExampleScenario.node[55].veinsmobility 	totalTime 	511
scalar RSUExampleScenario.node[55].veinsmobility 	stopTime 	622
scalar RSUExampleScenario.node[55].veinsmobility 	minSpeed 	0
scalar RSUExampleScenario.node[55].veinsmobility 	maxSpeed 	27.744053762294
scalar RSUExampleScenario.node[55].veinsmobility 	totalDistance 	3403.7315149144
scalar RSUExampleScenario.node[55].veinsmobility 	totalCO2Emission 	1257.3124317423
scalar RSUExampleScenario.node[28].nic.phy80211p 	busyTime 	5.1937172774869e-06
scalar RSUExampleScenario.node[28].nic.mac1609_4 	ReceivedUnicastPackets 	0
scalar RSUExampleScenario.node[28].nic.mac1609_4 	ReceivedBroadcasts 	21
scalar RSUExampleScenario.node[28].nic.mac1609_4 	SentPackets 	1
scalar RSUExampleScenario.node[28].nic.mac1609_4 	SNIRLostPackets 	10
scalar RSUExampleScenario.node[28].nic.mac1609_4 	RXTXLostPackets 	0
scalar RSUExampleScenario.node[28].nic.mac1609_4 	TotalLostPackets 	10
scalar RSUExampleScenario.node[28].nic.mac1609_4 	DroppedPacketsInMac 	0
scalar RSUExampleScenario.node[28].nic.mac1609_4 	TooLittleTime 	0
scalar RSUExampleScenario.node[28].nic.mac1609_4 	TimesIntoBackoff 	2
scalar RSUExampleScenario.node[28].nic.mac1609_4 	SlotsBackoff 	5
scalar RSUExampleScenario.node[28].nic.mac1609_4 	NumInternalContention 	0
scalar RSUExampleScenario.node[28].nic.mac1609_4 	totalBusyTime 	0.002593
scalar RSUExampleScenario.node[28].veinsmobility 	startTime 	51
scalar RSUExampleScenario.node[28].veinsmobility 	totalTime 	572
scalar RSUExampleScenario.node[28].veinsmobility 	stopTime 	624
scalar RSUExampleScenario.node[28].veinsmobility 	minSpeed 	0
scalar RSUExampleScenario.node[28].veinsmobility 	maxSpeed 	16.669567474807
scalar RSUExampleScenario.node[28].veinsmobility 	totalDistance 	3345.0564089472
scalar RSUExampleScenario.node[28].veinsmobility 	totalCO2Emission 	1125.0904887467
scalar RSUExampleScenario.node[52].nic.phy80211p 	busyTime 	3.8473282442748e-06
scalar RSUExampleScenario.node[52].nic.mac1609_4 	ReceivedUnicastPackets 	0
scalar RSUExampleScenario.node[52].nic.mac1609_4 	ReceivedBroadcasts 	17
scalar RSUExampleScenario.node[52].nic.mac1609_4 	SentPackets 	1
scalar RSUExampleScenario.node[52].nic.mac1609_4 	SNIRLostPackets 	4
scalar RSUExampleScenario.node[52].nic.mac1609_4 	RXTXLostPackets 	0
scalar RSUExampleScenario.node[52].nic.mac1609_4 	TotalLostPackets 	4
scalar RSUExampleScenario.node[52].nic.mac1609_4 	DroppedPacketsInMac 	0
scalar RSUExampleScenario.node[52].nic.mac1609_4 	TooLittleTime 	0
scalar RSUExampleScenario.node[52].nic.mac1609_4 	TimesIntoBackoff 	1
scalar RSUExampleScenario.node[52].nic.mac1609_4 	SlotsBackoff 	4
scalar RSUExampleScenario.node[52].nic.mac1609_4 	NumInternalContention 	0
scalar RSUExampleScenario.node[52].nic.mac1609_4 	totalBusyTime 	0.001921
scalar RSUExampleScenario.node[52].veinsmobility 	startTime 	103
scalar RSUExampleScenario.node[52].veinsmobility 	totalTime 	523
scalar RSUExampleScenario.node[52].veinsmobility 	stopTime 	627
scalar RSUExampleScenario.node[52].veinsmobility 	minSpeed 	0
scalar RSUExampleScenario.node[52].veinsmobility 	maxSpeed 	27.774085175507
scalar RSUExampleScenario.node[52].veinsmobility 	totalDistance 	3397.1475972156
scalar RSUExampleScenario.node[52].veinsmobility 	totalCO2Emission 	1262.9646311792
scalar RSUExampleScenario.node[54].nic.phy80211p 	busyTime 	3.8694817658349e-06
scalar RSUExampleScenario.node[54].nic.mac1609_4 	ReceivedUnicastPackets 	0
scalar RSUExampleScenario.node[54].nic.mac1609_4 	ReceivedBroadcasts 	17
scalar RSUExampleScenario.node[54].nic.mac1609_4 	SentPackets 	1
scalar RSUExampleScenario.node[54].nic.mac1609_4 	SNIRLostPackets 	4
scalar RSUExampleScenario.node[54].nic.mac1609_4 	RXTXLostPackets 	0
scalar RSUExampleScenario.node[54].nic.mac1609_4 	TotalLostPackets 	4
scalar RSUExampleScenario.node[54].nic.mac1609_4 	DroppedPacketsInMac 	0
scalar RSUExampleScenario.node[54].nic.mac1609_4 	TooLittleTime 	0
scalar RSUExampleScenario.node[54].nic.mac1609_4 	TimesIntoBackoff 	1
scalar RSUExampleScenario.node[54].nic.mac1609_4 	SlotsBackoff 	1
scalar RSUExampleScenario.node[54].nic.mac1609_4 	NumInternalContention 	0
scalar RSUExampleScenario.node[54].nic.mac1609_4 	totalBusyTime 	0.001921
scalar RSUExampleScenario.node[54].veinsmobility 	startTime 	108
scalar RSUExampleScenario.node[54].veinsmobility 	totalTime 	520
scalar RSUExampleScenario.node[54].veinsmobility 	stopTime 	629
scalar RSUExampleScenario.node[54].veinsmobility 	minSpeed 	0
scalar RSUExampleScenario.node[54].veinsmobility 	maxSpeed 	27.73502590239
scalar RSUExampleScenario.node[54].veinsmobility 	totalDistance 	3396.8669883264
scalar RSUExampleScenario.node[54].veinsmobility 	totalCO2Emission 	1293.5781184889
scalar RSUExampleScenario.node[53].nic.phy80211p 	busyTime 	3.6855575868373e-06
scalar RSUExampleScenario.node[53].nic.mac1609_4 	ReceivedUnicastPackets 	0
scalar RSUExampleScenario.node[53].nic.mac1609_4 	ReceivedBroadcasts 	17
scalar RSUExampleScenario.node[53].nic.mac1609_4 	SentPackets 	1
scalar RSUExampleScenario.node[53].nic.mac1609_4 	SNIRLostPackets 	4
scalar RSUExampleScenario.node[53].nic.mac1609_4 	RXTXLostPackets 	0
scalar RSUExampleScenario.node[53].nic.mac1609_4 	TotalLostPackets 	4
scalar RSUExampleScenario.node[53].nic.mac1609_4 	DroppedPacketsInMac 	0
scalar RSUExampleScenario.node[53].nic.mac1609_4 	TooLittleTime 	0
scalar RSUExampleScenario.node[53].nic.mac1609_4 	TimesIntoBackoff 	1
scalar RSUExampleScenario.node[53].nic.mac1609_4 	SlotsBackoff 	7
scalar RSUExampleScenario.node[53].nic.mac1609_4 	NumInternalContention 	0
scalar RSUExampleScenario.node[53].nic.mac1609_4 	totalBusyTime 	0.001921
scalar RSUExampleScenario.node[53].veinsmobility 	startTime 	106
scalar RSUExampleScenario.node[53].veinsmobility 	totalTime 	546
scalar RSUExampleScenario.node[53].veinsmobility 	stopTime 	653
scalar RSUExampleScenario.node[53].veinsmobility 	minSpeed 	0
scalar RSUExampleScenario.node[53].veinsmobility 	maxSpeed 	27.769007189963
scalar RSUExampleScenario.node[53].veinsmobility 	totalDistance 	3397.032847581
scalar RSUExampleScenario.node[53].veinsmobility 	totalCO2Emission 	1270.5394080886
scalar RSUExampleScenario.node[30].nic.phy80211p 	busyTime 	4.9517470881864e-06
scalar RSUExampleScenario.node[30].nic.mac1609_4 	ReceivedUnicastPackets 	0
scalar RSUExampleScenario.node[30].nic.mac1609_4 	ReceivedBroadcasts 	21
scalar RSUExampleScenario.node[30].nic.mac1609_4 	SentPackets 	1
scalar RSUExampleScenario.node[30].nic.mac1609_4 	SNIRLostPackets 	10
scalar RSUExampleScenario.node[30].nic.mac1609_4 	RXTXLostPackets 	0
scalar RSUExampleScenario.node[30].nic.mac1609_4 	TotalLostPackets 	10
scalar RSUExampleScenario.node[30].nic.mac1609_4 	DroppedPacketsInMac 	0
scalar RSUExampleScenario.node[30].nic.mac1609_4 	TooLittleTime 	0
scalar RSUExampleScenario.node[30].nic.mac1609_4 	TimesIntoBackoff 	1
scalar RSUExampleScenario.node[30].nic.mac1609_4 	SlotsBackoff 	0
scalar RSUExampleScenario.node[30].nic.mac1609_4 	NumInternalContention 	0
scalar RSUExampleScenario.node[30].nic.mac1609_4 	totalBusyTime 	0.002670985721
scalar RSUExampleScenario.node[30].veinsmobility 	startTime 	55
scalar RSUExampleScenario.node[30].veinsmobility 	totalTime 	600
scalar RSUExampleScenario.node[30].veinsmobility 	stopTime 	656
scalar RSUExampleScenario.node[30].veinsmobility 	minSpeed 	0
scalar RSUExampleScenario.node[30].veinsmobility 	maxSpeed 	16.668885856001
scalar RSUExampleScenario.node[30].veinsmobility 	totalDistance 	3254.1730563299
scalar RSUExampleScenario.node[30].veinsmobility 	totalCO2Emission 	1165.5228359426
scalar RSUExampleScenario.node[65].nic.phy80211p 	busyTime 	7.1314285714286e-06
scalar RSUExampleScenario.node[65].nic.mac1609_4 	ReceivedUnicastPackets 	0
scalar RSUExampleScenario.node[65].nic.mac1609_4 	ReceivedBroadcasts 	12
scalar RSUExampleScenario.node[65].nic.mac1609_4 	SentPackets 	1
scalar RSUExampleScenario.node[65].nic.mac1609_4 	SNIRLostPackets 	27
scalar RSUExampleScenario.node[65].nic.mac1609_4 	RXTXLostPackets 	0
scalar RSUExampleScenario.node[65].nic.mac1609_4 	TotalLostPackets 	27
scalar RSUExampleScenario.node[65].nic.mac1609_4 	DroppedPacketsInMac 	0
scalar RSUExampleScenario.node[65].nic.mac1609_4 	TooLittleTime 	0
scalar RSUExampleScenario.node[65].nic.mac1609_4 	TimesIntoBackoff 	1
scalar RSUExampleScenario.node[65].nic.mac1609_4 	SlotsBackoff 	2
scalar RSUExampleScenario.node[65].nic.mac1609_4 	NumInternalContention 	0
scalar RSUExampleScenario.node[65].nic.mac1609_4 	totalBusyTime 	0.002497
scalar RSUExampleScenario.node[65].veinsmobility 	startTime 	133
scalar RSUExampleScenario.node[65].veinsmobility 	totalTime 	524
scalar RSUExampleScenario.node[65].veinsmobility 	stopTime 	658
scalar RSUExampleScenario.node[65].veinsmobility 	minSpeed 	0
scalar RSUExampleScenario.node[65].veinsmobility 	maxSpeed 	27.187263015428
scalar RSUExampleScenario.node[65].veinsmobility 	totalDistance 	3398.886750217
scalar RSUExampleScenario.node[65].veinsmobility 	totalCO2Emission 	1212.7343188694
scalar RSUExampleScenario.node[27].nic.phy80211p 	busyTime 	5.0278232405892e-06
scalar RSUExampleScenario.node[27].nic.mac1609_4 	ReceivedUnicastPackets 	0
scalar RSUExampleScenario.node[27].nic.mac1609_4 	ReceivedBroadcasts 	22
scalar RSUExampleScenario.node[27].nic.mac1609_4 	SentPackets 	1
scalar RSUExampleScenario.node[27].nic.mac1609_4 	SNIRLostPackets 	10
scalar RSUExampleScenario.node[27].nic.mac1609_4 	RXTXLostPackets 	0
scalar RSUExampleScenario.node[27].nic.mac1609_4 	TotalLostPackets 	10
scalar RSUExampleScenario.node[27].nic.mac1609_4 	DroppedPacketsInMac 	0
scalar RSUExampleScenario.node[27].nic.mac1609_4 	TooLittleTime 	0
scalar RSUExampleScenario.node[27].nic.mac1609_4 	TimesIntoBackoff 	1
scalar RSUExampleScenario.node[27].nic.mac1609_4 	SlotsBackoff 	4
scalar RSUExampleScenario.node[27].nic.mac1609_4 	NumInternalContention 	0
scalar RSUExampleScenario.node[27].nic.mac1609_4 	totalBusyTime 	0.002689
scalar RSUExampleScenario.node[27].veinsmobility 	startTime 	49
scalar RSUExampleScenario.node[27].veinsmobility 	totalTime 	610
scalar RSUExampleScenario.node[27].veinsmobility 	stopTime 	660
scalar RSUExampleScenario.node[27].veinsmobility 	minSpeed 	0
scalar RSUExampleScenario.node[27].veinsmobility 	maxSpeed 	16.666751764631
scalar RSUExampleScenario.node[27].veinsmobility 	totalDistance 	3347.2218943957
scalar RSUExampleScenario.node[27].veinsmobility 	totalCO2Emission 	1142.1853478991
scalar RSUExampleScenario.node[59].nic.phy80211p 	busyTime 	3.7058823529412e-06
scalar RSUExampleScenario.node[59].nic.mac1609_4 	ReceivedUnicastPackets 	0
scalar RSUExampleScenario.node[59].nic.mac1609_4 	ReceivedBroadcasts 	17
scalar RSUExampleScenario.node[59].nic.mac1609_4 	SentPackets 	1
scalar RSUExampleScenario.node[59].nic.mac1609_4 	SNIRLostPackets 	4
scalar RSUExampleScenario.node[59].nic.mac1609_4 	RXTXLostPackets 	1
scalar RSUExampleScenario.node[59].nic.mac1609_4 	TotalLostPackets 	5
scalar RSUExampleScenario.node[59].nic.mac1609_4 	DroppedPacketsInMac 	0
scalar RSUExampleScenario.node[59].nic.mac1609_4 	TooLittleTime 	0
scalar RSUExampleScenario.node[59].nic.mac1609_4 	TimesIntoBackoff 	1
scalar RSUExampleScenario.node[59].nic.mac1609_4 	SlotsBackoff 	6
scalar RSUExampleScenario.node[59].nic.mac1609_4 	NumInternalContention 	0
scalar RSUExampleScenario.node[59].nic.mac1609_4 	totalBusyTime 	0.001921
scalar RSUExampleScenario.node[59].veinsmobility 	startTime 	119
scalar RSUExampleScenario.node[59].veinsmobility 	totalTime 	543
scalar RSUExampleScenario.node[59].veinsmobility 	stopTime 	663
scalar RSUExampleScenario.node[59].veinsmobility 	minSpeed 	0
scalar RSUExampleScenario.node[59].veinsmobility 	maxSpeed 	27.725763572091
scalar RSUExampleScenario.node[59].veinsmobility 	totalDistance 	3404.1702943852
scalar RSUExampleScenario.node[59].veinsmobility 	totalCO2Emission 	1339.5064435249
scalar RSUExampleScenario.node[56].nic.phy80211p 	busyTime 	3.6455696202532e-06
scalar RSUExampleScenario.node[56].nic.mac1609_4 	ReceivedUnicastPackets 	0
scalar RSUExampleScenario.node[56].nic.mac1609_4 	ReceivedBroadcasts 	17
scalar RSUExampleScenario.node[56].nic.mac1609_4 	SentPackets 	1
scalar RSUExampleScenario.node[56].nic.mac1609_4 	SNIRLostPackets 	4
scalar RSUExampleScenario.node[56].nic.mac1609_4 	RXTXLostPackets 	0
scalar RSUExampleScenario.node[56].nic.mac1609_4 	TotalLostPackets 	4
scalar RSUExampleScenario.node[56].nic.mac1609_4 	DroppedPacketsInMac 	0
scalar RSUExampleScenario.node[56].nic.mac1609_4 	TooLittleTime 	0
scalar RSUExampleScenario.node[56].nic.mac1609_4 	TimesIntoBackoff 	1
scalar RSUExampleScenario.node[56].nic.mac1609_4 	SlotsBackoff 	3
scalar RSUExampleScenario.node[56].nic.mac1609_4 	NumInternalContention 	0
scalar RSUExampleScenario.node[56].nic.mac1609_4 	totalBusyTime 	0.001921
scalar RSUExampleScenario.node[56].veinsmobility 	startTime 	112
scalar RSUExampleScenario.node[56].veinsmobility 	totalTime 	552
scalar RSUExampleScenario.node[56].veinsmobility 	stopTime 	665
scalar RSUExampleScenario.node[56].veinsmobility 	minSpeed 	0
scalar RSUExampleScenario.node[56].veinsmobility 	maxSpeed 	27.740615373207
scalar RSUExampleScenario.node[56].veinsmobility 	totalDistance 	3399.3964729968
scalar RSUExampleScenario.node[56].veinsmobility 	totalCO2Emission 	1302.9490504146
scalar RSUExampleScenario.node[67].nic.phy80211p 	busyTime 	7.2589792060492e-06
scalar RSUExampleScenario.node[67].nic.mac1609_4 	ReceivedUnicastPackets 	0
scalar RSUExampleScenario.node[67].nic.mac1609_4 	ReceivedBroadcasts 	12
scalar RSUExampleScenario.node[67].nic.mac1609_4 	SentPackets 	1
scalar RSUExampleScenario.node[67].nic.mac1609_4 	SNIRLostPackets 	28
scalar RSUExampleScenario.node[67].nic.mac1609_4 	RXTXLostPackets 	1
scalar RSUExampleScenario.node[67].nic.mac1609_4 	TotalLostPackets 	29
scalar RSUExampleScenario.node[67].nic.mac1609_4 	DroppedPacketsInMac 	0
scalar RSUExampleScenario.node[67].nic.mac1609_4 	TooLittleTime 	0
scalar RSUExampleScenario.node[67].nic.mac1609_4 	TimesIntoBackoff 	1
scalar RSUExampleScenario.node[67].nic.mac1609_4 	SlotsBackoff 	5
scalar RSUExampleScenario.node[67].nic.mac1609_4 	NumInternalContention 	0
scalar RSUExampleScenario.node[67].nic.mac1609_4 	totalBusyTime 	0.002497
scalar RSUExampleScenario.node[67].veinsmobility 	startTime 	138
scalar RSUExampleScenario.node[67].veinsmobility 	totalTime 	528
scalar RSUExampleScenario.node[67].veinsmobility 	stopTime 	667
scalar RSUExampleScenario.node[67].veinsmobility 	minSpeed 	0
scalar RSUExampleScenario.node[67].veinsmobility 	maxSpeed 	26.445062565265
scalar RSUExampleScenario.node[67].veinsmobility 	totalDistance 	3396.2952604243
scalar RSUExampleScenario.node[67].veinsmobility 	totalCO2Emission 	1275.6884333764
scalar RSUExampleScenario.node[51].nic.phy80211p 	busyTime 	3.3625218914186e-06
scalar RSUExampleScenario.node[51].nic.mac1609_4 	ReceivedUnicastPackets 	0
scalar RSUExampleScenario.node[51].nic.mac1609_4 	ReceivedBroadcasts 	16
scalar RSUExampleScenario.node[51].nic.mac1609_4 	SentPackets 	1
scalar RSUExampleScenario.node[51].nic.mac1609_4 	SNIRLostPackets 	4
scalar RSUExampleScenario.node[51].nic.mac1609_4 	RXTXLostPackets 	0
scalar RSUExampleScenario.node[51].nic.mac1609_4 	TotalLostPackets 	4
scalar RSUExampleScenario.node[51].nic.mac1609_4 	DroppedPacketsInMac 	0
scalar RSUExampleScenario.node[51].nic.mac1609_4 	TooLittleTime 	0
scalar RSUExampleScenario.node[51].nic.mac1609_4 	TimesIntoBackoff 	1
scalar RSUExampleScenario.node[51].nic.mac1609_4 	SlotsBackoff 	1
scalar RSUExampleScenario.node[51].nic.mac1609_4 	NumInternalContention 	0
scalar RSUExampleScenario.node[51].nic.mac1609_4 	totalBusyTime 	0.001825
scalar RSUExampleScenario.node[51].veinsmobility 	startTime 	101
scalar RSUExampleScenario.node[51].veinsmobility 	totalTime 	570
scalar RSUExampleScenario.node[51].veinsmobility 	stopTime 	672
scalar RSUExampleScenario.node[51].veinsmobility 	minSpeed 	0
scalar RSUExampleScenario.node[51].veinsmobility 	maxSpeed 	27.777285718251
scalar RSUExampleScenario.node[51].veinsmobility 	totalDistance 	3405.7140957486
scalar RSUExampleScenario.node[51].veinsmobility 	totalCO2Emission 	1212.8896824552
scalar RSUExampleScenario.node[58].nic.phy80211p 	busyTime 	3.6193895870736e-06
scalar RSUExampleScenario.node[58].nic.mac1609_4 	ReceivedUnicastPackets 	0
scalar RSUExampleScenario.node[58].nic.mac1609_4 	ReceivedBroadcasts 	18
scalar RSUExampleScenario.node[58].nic.mac1609_4 	SentPackets 	1
scalar RSUExampleScenario.node[58].nic.mac1609_4 	SNIRLostPackets 	3
scalar RSUExampleScenario.node[58].nic.mac1609_4 	RXTXLostPackets 	0
scalar RSUExampleScenario.node[58].nic.mac1609_4 	TotalLostPackets 	3
scalar RSUExampleScenario.node[58].nic.mac1609_4 	DroppedPacketsInMac 	0
scalar RSUExampleScenario.node[58].nic.mac1609_4 	TooLittleTime 	0
scalar RSUExampleScenario.node[58].nic.mac1609_4 	TimesIntoBackoff 	1
scalar RSUExampleScenario.node[58].nic.mac1609_4 	SlotsBackoff 	6
scalar RSUExampleScenario.node[58].nic.mac1609_4 	NumInternalContention 	0
scalar RSUExampleScenario.node[58].nic.mac1609_4 	totalBusyTime 	0.001921
scalar RSUExampleScenario.node[58].veinsmobility 	startTime 	117
scalar RSUExampleScenario.node[58].veinsmobility 	totalTime 	556
scalar RSUExampleScenario.node[58].veinsmobility 	stopTime 	674
scalar RSUExampleScenario.node[58].veinsmobility 	minSpeed 	0
scalar RSUExampleScenario.node[58].veinsmobility 	maxSpeed 	27.739111223724
scalar RSUExampleScenario.node[58].veinsmobility 	totalDistance 	3408.8079016046
scalar RSUExampleScenario.node[58].veinsmobility 	totalCO2Emission 	1285.0724936669
scalar RSUExampleScenario.node[34].nic.phy80211p 	busyTime 	4.0585365853659e-06
scalar RSUExampleScenario.node[34].nic.mac1609_4 	ReceivedUnicastPackets 	0
scalar RSUExampleScenario.node[34].nic.mac1609_4 	ReceivedBroadcasts 	22
scalar RSUExampleScenario.node[34].nic.mac1609_4 	SentPackets 	1
scalar RSUExampleScenario.node[34].nic.mac1609_4 	SNIRLostPackets 	4
scalar RSUExampleScenario.node[34].nic.mac1609_4 	RXTXLostPackets 	1
scalar RSUExampleScenario.node[34].nic.mac1609_4 	TotalLostPackets 	5
scalar RSUExampleScenario.node[34].nic.mac1609_4 	DroppedPacketsInMac 	0
scalar RSUExampleScenario.node[34].nic.mac1609_4 	TooLittleTime 	0
scalar RSUExampleScenario.node[34].nic.mac1609_4 	TimesIntoBackoff 	2
scalar RSUExampleScenario.node[34].nic.mac1609_4 	SlotsBackoff 	9
scalar RSUExampleScenario.node[34].nic.mac1609_4 	NumInternalContention 	0
scalar RSUExampleScenario.node[34].nic.mac1609_4 	totalBusyTime 	0.002401
scalar RSUExampleScenario.node[34].veinsmobility 	startTime 	62
scalar RSUExampleScenario.node[34].veinsmobility 	totalTime 	614
scalar RSUExampleScenario.node[34].veinsmobility 	stopTime 	677
scalar RSUExampleScenario.node[34].veinsmobility 	minSpeed 	0
scalar RSUExampleScenario.node[34].veinsmobility 	maxSpeed 	16.666396899121
scalar RSUExampleScenario.node[34].veinsmobility 	totalDistance 	3257.5766159282
scalar RSUExampleScenario.node[34].veinsmobility 	totalCO2Emission 	1141.8719247116
scalar RSUExampleScenario.node[57].nic.phy80211p 	busyTime 	3.4878892733564e-06
scalar RSUExampleScenario.node[57].nic.mac1609_4 	ReceivedUnicastPackets 	0
scalar RSUExampleScenario.node[57].nic.mac1609_4 	ReceivedBroadcasts 	18
scalar RSUExampleScenario.node[57].nic.mac1609_4 	SentPackets 	1
scalar RSUExampleScenario.node[57].nic.mac1609_4 	SNIRLostPackets 	3
scalar RSUExampleScenario.node[57].nic.mac1609_4 	RXTXLostPackets 	0
scalar RSUExampleScenario.node[57].nic.mac1609_4 	TotalLostPackets 	3
scalar RSUExampleScenario.node[57].nic.mac1609_4 	DroppedPacketsInMac 	0
scalar RSUExampleScenario.node[57].nic.mac1609_4 	TooLittleTime 	0
scalar RSUExampleScenario.node[57].nic.mac1609_4 	TimesIntoBackoff 	1
scalar RSUExampleScenario.node[57].nic.mac1609_4 	SlotsBackoff 	6
scalar RSUExampleScenario.node[57].nic.mac1609_4 	NumInternalContention 	0
scalar RSUExampleScenario.node[57].nic.mac1609_4 	totalBusyTime 	0.001921
scalar RSUExampleScenario.node[57].veinsmobility 	startTime 	114
scalar RSUExampleScenario.node[57].veinsmobility 	totalTime 	577
scalar RSUExampleScenario.node[57].veinsmobility 	stopTime 	692
scalar RSUExampleScenario.node[57].veinsmobility 	minSpeed 	0
scalar RSUExampleScenario.node[57].veinsmobility 	maxSpeed 	27.357831446475
scalar RSUExampleScenario.node[57].veinsmobility 	totalDistance 	3403.8964670505
scalar RSUExampleScenario.node[57].veinsmobility 	totalCO2Emission 	1381.1714141899
scalar RSUExampleScenario.node[29].nic.phy80211p 	busyTime 	4.6427457098284e-06
scalar RSUExampleScenario.node[29].nic.mac1609_4 	ReceivedUnicastPackets 	0
scalar RSUExampleScenario.node[29].nic.mac1609_4 	ReceivedBroadcasts 	21
scalar RSUExampleScenario.node[29].nic.mac1609_4 	SentPackets 	1
scalar RSUExampleScenario.node[29].nic.mac1609_4 	SNIRLostPackets 	10
scalar RSUExampleScenario.node[29].nic.mac1609_4 	RXTXLostPackets 	0
scalar RSUExampleScenario.node[29].nic.mac1609_4 	TotalLostPackets 	10
scalar RSUExampleScenario.node[29].nic.mac1609_4 	DroppedPacketsInMac 	0
scalar RSUExampleScenario.node[29].nic.mac1609_4 	TooLittleTime 	0
scalar RSUExampleScenario.node[29].nic.mac1609_4 	TimesIntoBackoff 	1
scalar RSUExampleScenario.node[29].nic.mac1609_4 	SlotsBackoff 	2
scalar RSUExampleScenario.node[29].nic.mac1609_4 	NumInternalContention 	0
scalar RSUExampleScenario.node[29].nic.mac1609_4 	totalBusyTime 	0.002593
scalar RSUExampleScenario.node[29].veinsmobility 	startTime 	53
scalar RSUExampleScenario.node[29].veinsmobility 	totalTime 	640
scalar RSUExampleScenario.node[29].veinsmobility 	stopTime 	694
scalar RSUExampleScenario.node[29].veinsmobility 	minSpeed 	0
scalar RSUExampleScenario.node[29].veinsmobility 	maxSpeed 	16.669789929492
scalar RSUExampleScenario.node[29].veinsmobility 	totalDistance 	3252.7947638791
scalar RSUExampleScenario.node[29].veinsmobility 	totalCO2Emission 	1235.4122543229
scalar RSUExampleScenario.node[63].nic.phy80211p 	busyTime 	5.2302284710018e-06
scalar RSUExampleScenario.node[63].nic.mac1609_4 	ReceivedUnicastPackets 	0
scalar RSUExampleScenario.node[63].nic.mac1609_4 	ReceivedBroadcasts 	17
scalar RSUExampleScenario.node[63].nic.mac1609_4 	SentPackets 	1
scalar RSUExampleScenario.node[63].nic.mac1609_4 	SNIRLostPackets 	14
scalar RSUExampleScenario.node[63].nic.mac1609_4 	RXTXLostPackets 	0
scalar RSUExampleScenario.node[63].nic.mac1609_4 	TotalLostPackets 	14
scalar RSUExampleScenario.node[63].nic.mac1609_4 	DroppedPacketsInMac 	0
scalar RSUExampleScenario.node[63].nic.mac1609_4 	TooLittleTime 	0
scalar RSUExampleScenario.node[63].nic.mac1609_4 	TimesIntoBackoff 	2
scalar RSUExampleScenario.node[63].nic.mac1609_4 	SlotsBackoff 	12
scalar RSUExampleScenario.node[63].nic.mac1609_4 	NumInternalContention 	0
scalar RSUExampleScenario.node[63].nic.mac1609_4 	totalBusyTime 	0.002401
scalar RSUExampleScenario.node[63].veinsmobility 	startTime 	128
scalar RSUExampleScenario.node[63].veinsmobility 	totalTime 	568
scalar RSUExampleScenario.node[63].veinsmobility 	stopTime 	697
scalar RSUExampleScenario.node[63].veinsmobility 	minSpeed 	0
scalar RSUExampleScenario.node[63].veinsmobility 	maxSpeed 	27.700552289579
scalar RSUExampleScenario.node[63].veinsmobility 	totalDistance 	3408.5762244894
scalar RSUExampleScenario.node[63].veinsmobility 	totalCO2Emission 	1332.386042186
scalar RSUExampleScenario.node[60].nic.phy80211p 	busyTime 	4.1450777202073e-06
scalar RSUExampleScenario.node[60].nic.mac1609_4 	ReceivedUnicastPackets 	0
scalar RSUExampleScenario.node[60].nic.mac1609_4 	ReceivedBroadcasts 	16
scalar RSUExampleScenario.node[60].nic.mac1609_4 	SentPackets 	1
scalar RSUExampleScenario.node[60].nic.mac1609_4 	SNIRLostPackets 	9
scalar RSUExampleScenario.node[60].nic.mac1609_4 	RXTXLostPackets 	0
scalar RSUExampleScenario.node[60].nic.mac1609_4 	TotalLostPackets 	9
scalar RSUExampleScenario.node[60].nic.mac1609_4 	DroppedPacketsInMac 	0
scalar RSUExampleScenario.node[60].nic.mac1609_4 	TooLittleTime 	0
scalar RSUExampleScenario.node[60].nic.mac1609_4 	TimesIntoBackoff 	1
scalar RSUExampleScenario.node[60].nic.mac1609_4 	SlotsBackoff 	5
scalar RSUExampleScenario.node[60].nic.mac1609_4 	NumInternalContention 	0
scalar RSUExampleScenario.node[60].nic.mac1609_4 	totalBusyTime 	0.002017
scalar RSUExampleScenario.node[60].veinsmobility 	startTime 	121
scalar RSUExampleScenario.node[60].veinsmobility 	totalTime 	578
scalar RSUExampleScenario.node[60].veinsmobility 	stopTime 	700
scalar RSUExampleScenario.node[60].veinsmobility 	minSpeed 	0
scalar RSUExampleScenario.node[60].veinsmobility 	maxSpeed 	27.754574411744
scalar RSUExampleScenario.node[60].veinsmobility 	totalDistance 	3414.2379476273
scalar RSUExampleScenario.node[60].veinsmobility 	totalCO2Emission 	1345.0685360967
scalar RSUExampleScenario.node[62].nic.phy80211p 	busyTime 	4.8333333333333e-06
scalar RSUExampleScenario.node[62].nic.mac1609_4 	ReceivedUnicastPackets 	0
scalar RSUExampleScenario.node[62].nic.mac1609_4 	ReceivedBroadcasts 	18
scalar RSUExampleScenario.node[62].nic.mac1609_4 	SentPackets 	1
scalar RSUExampleScenario.node[62].nic.mac1609_4 	SNIRLostPackets 	11
scalar RSUExampleScenario.node[62].nic.mac1609_4 	RXTXLostPackets 	1
scalar RSUExampleScenario.node[62].nic.mac1609_4 	TotalLostPackets 	12
scalar RSUExampleScenario.node[62].nic.mac1609_4 	DroppedPacketsInMac 	0
scalar RSUExampleScenario.node[62].nic.mac1609_4 	TooLittleTime 	0
scalar RSUExampleScenario.node[62].nic.mac1609_4 	TimesIntoBackoff 	1
scalar RSUExampleScenario.node[62].nic.mac1609_4 	SlotsBackoff 	3
scalar RSUExampleScenario.node[62].nic.mac1609_4 	NumInternalContention 	0
scalar RSUExampleScenario.node[62].nic.mac1609_4 	totalBusyTime 	0.002401
scalar RSUExampleScenario.node[62].veinsmobility 	startTime 	126
scalar RSUExampleScenario.node[62].veinsmobility 	totalTime 	575
scalar RSUExampleScenario.node[62].veinsmobility 	stopTime 	702
scalar RSUExampleScenario.node[62].veinsmobility 	minSpeed 	0
scalar RSUExampleScenario.node[62].veinsmobility 	maxSpeed 	27.459656059247
scalar RSUExampleScenario.node[62].veinsmobility 	totalDistance 	3400.7111808484
scalar RSUExampleScenario.node[62].veinsmobility 	totalCO2Emission 	1324.2679289187
scalar RSUExampleScenario.node[61].nic.phy80211p 	busyTime 	4.6344827586207e-06
scalar RSUExampleScenario.node[61].nic.mac1609_4 	ReceivedUnicastPackets 	0
scalar RSUExampleScenario.node[61].nic.mac1609_4 	ReceivedBroadcasts 	17
scalar RSUExampleScenario.node[61].nic.mac1609_4 	SentPackets 	1
scalar RSUExampleScenario.node[61].nic.mac1609_4 	SNIRLostPackets 	11
scalar RSUExampleScenario.node[61].nic.mac1609_4 	RXTXLostPackets 	0
scalar RSUExampleScenario.node[61].nic.mac1609_4 	TotalLostPackets 	11
scalar RSUExampleScenario.node[61].nic.mac1609_4 	DroppedPacketsInMac 	0
scalar RSUExampleScenario.node[61].nic.mac1609_4 	TooLittleTime 	0
scalar RSUExampleScenario.node[61].nic.mac1609_4 	TimesIntoBackoff 	1
scalar RSUExampleScenario.node[61].nic.mac1609_4 	SlotsBackoff 	3
scalar RSUExampleScenario.node[61].nic.mac1609_4 	NumInternalContention 	0
scalar RSUExampleScenario.node[61].nic.mac1609_4 	totalBusyTime 	0.002305
scalar RSUExampleScenario.node[61].veinsmobility 	startTime 	124
scalar RSUExampleScenario.node[61].veinsmobility 	totalTime 	579
scalar RSUExampleScenario.node[61].veinsmobility 	stopTime 	704
scalar RSUExampleScenario.node[61].veinsmobility 	minSpeed 	0
scalar RSUExampleScenario.node[61].veinsmobility 	maxSpeed 	27.768441654891
scalar RSUExampleScenario.node[61].veinsmobility 	totalDistance 	3405.5202378231
scalar RSUExampleScenario.node[61].veinsmobility 	totalCO2Emission 	1298.5743144579
scalar RSUExampleScenario.node[64].nic.phy80211p 	busyTime 	5.5095652173913e-06
scalar RSUExampleScenario.node[64].nic.mac1609_4 	ReceivedUnicastPackets 	0
scalar RSUExampleScenario.node[64].nic.mac1609_4 	ReceivedBroadcasts 	18
scalar RSUExampleScenario.node[64].nic.mac1609_4 	SentPackets 	1
scalar RSUExampleScenario.node[64].nic.mac1609_4 	SNIRLostPackets 	15
scalar RSUExampleScenario.node[64].nic.mac1609_4 	RXTXLostPackets 	1
scalar RSUExampleScenario.node[64].nic.mac1609_4 	TotalLostPackets 	16
scalar RSUExampleScenario.node[64].nic.mac1609_4 	DroppedPacketsInMac 	0
scalar RSUExampleScenario.node[64].nic.mac1609_4 	TooLittleTime 	0
scalar RSUExampleScenario.node[64].nic.mac1609_4 	TimesIntoBackoff 	1
scalar RSUExampleScenario.node[64].nic.mac1609_4 	SlotsBackoff 	2
scalar RSUExampleScenario.node[64].nic.mac1609_4 	NumInternalContention 	0
scalar RSUExampleScenario.node[64].nic.mac1609_4 	totalBusyTime 	0.002497
scalar RSUExampleScenario.node[64].veinsmobility 	startTime 	131
scalar RSUExampleScenario.node[64].veinsmobility 	totalTime 	574
scalar RSUExampleScenario.node[64].veinsmobility 	stopTime 	706
scalar RSUExampleScenario.node[64].veinsmobility 	minSpeed 	0
scalar RSUExampleScenario.node[64].veinsmobility 	maxSpeed 	27.779072069218
scalar RSUExampleScenario.node[64].veinsmobility 	totalDistance 	3399.6017837286
scalar RSUExampleScenario.node[64].veinsmobility 	totalCO2Emission 	1309.7274213801
scalar RSUExampleScenario.node[40].nic.phy80211p 	busyTime 	3.9307086614173e-06
scalar RSUExampleScenario.node[40].nic.mac1609_4 	ReceivedUnicastPackets 	0
scalar RSUExampleScenario.node[40].nic.mac1609_4 	ReceivedBroadcasts 	20
scalar RSUExampleScenario.node[40].nic.mac1609_4 	SentPackets 	1
scalar RSUExampleScenario.node[40].nic.mac1609_4 	SNIRLostPackets 	6
scalar RSUExampleScenario.node[40].nic.mac1609_4 	RXTXLostPackets 	0
scalar RSUExampleScenario.node[40].nic.mac1609_4 	TotalLostPackets 	6
scalar RSUExampleScenario.node[40].nic.mac1609_4 	DroppedPacketsInMac 	0
scalar RSUExampleScenario.node[40].nic.mac1609_4 	TooLittleTime 	0
scalar RSUExampleScenario.node[40].nic.mac1609_4 	TimesIntoBackoff 	2
scalar RSUExampleScenario.node[40].nic.mac1609_4 	SlotsBackoff 	11
scalar RSUExampleScenario.node[40].nic.mac1609_4 	NumInternalContention 	0
scalar RSUExampleScenario.node[40].nic.mac1609_4 	totalBusyTime 	0.002305
scalar RSUExampleScenario.node[40].veinsmobility 	startTime 	74
scalar RSUExampleScenario.node[40].veinsmobility 	totalTime 	634
scalar RSUExampleScenario.node[40].veinsmobility 	stopTime 	709
scalar RSUExampleScenario.node[40].veinsmobility 	minSpeed 	0
scalar RSUExampleScenario.node[40].veinsmobility 	maxSpeed 	16.663073383109
scalar RSUExampleScenario.node[40].veinsmobility 	totalDistance 	3252.8631532894
scalar RSUExampleScenario.node[40].veinsmobility 	totalCO2Emission 	1215.57614709
scalar RSUExampleScenario.node[68].nic.phy80211p 	busyTime 	7.3975481611208e-06
scalar RSUExampleScenario.node[68].nic.mac1609_4 	ReceivedUnicastPackets 	0
scalar RSUExampleScenario.node[68].nic.mac1609_4 	ReceivedBroadcasts 	16
scalar RSUExampleScenario.node[68].nic.mac1609_4 	SentPackets 	1
scalar RSUExampleScenario.node[68].nic.mac1609_4 	SNIRLostPackets 	28
scalar RSUExampleScenario.node[68].nic.mac1609_4 	RXTXLostPackets 	1
scalar RSUExampleScenario.node[68].nic.mac1609_4 	TotalLostPackets 	29
scalar RSUExampleScenario.node[68].nic.mac1609_4 	DroppedPacketsInMac 	0
scalar RSUExampleScenario.node[68].nic.mac1609_4 	TooLittleTime 	0
scalar RSUExampleScenario.node[68].nic.mac1609_4 	TimesIntoBackoff 	1
scalar RSUExampleScenario.node[68].nic.mac1609_4 	SlotsBackoff 	0
scalar RSUExampleScenario.node[68].nic.mac1609_4 	NumInternalContention 	0
scalar RSUExampleScenario.node[68].nic.mac1609_4 	totalBusyTime 	0.002881
scalar RSUExampleScenario.node[68].veinsmobility 	startTime 	140
scalar RSUExampleScenario.node[68].veinsmobility 	totalTime 	570
scalar RSUExampleScenario.node[68].veinsmobility 	stopTime 	711
scalar RSUExampleScenario.node[68].veinsmobility 	minSpeed 	0
scalar RSUExampleScenario.node[68].veinsmobility 	maxSpeed 	26.163621213176
scalar RSUExampleScenario.node[68].veinsmobility 	totalDistance 	3394.0632849602
scalar RSUExampleScenario.node[68].veinsmobility 	totalCO2Emission 	1288.8352785465
scalar RSUExampleScenario.node[35].nic.phy80211p 	busyTime 	3.8459167950693e-06
scalar RSUExampleScenario.node[35].nic.mac1609_4 	ReceivedUnicastPackets 	0
scalar RSUExampleScenario.node[35].nic.mac1609_4 	ReceivedBroadcasts 	20
scalar RSUExampleScenario.node[35].nic.mac1609_4 	SentPackets 	1
scalar RSUExampleScenario.node[35].nic.mac1609_4 	SNIRLostPackets 	6
scalar RSUExampleScenario.node[35].nic.mac1609_4 	RXTXLostPackets 	0
scalar RSUExampleScenario.node[35].nic.mac1609_4 	TotalLostPackets 	6
scalar RSUExampleScenario.node[35].nic.mac1609_4 	DroppedPacketsInMac 	0
scalar RSUExampleScenario.node[35].nic.mac1609_4 	TooLittleTime 	0
scalar RSUExampleScenario.node[35].nic.mac1609_4 	TimesIntoBackoff 	2
scalar RSUExampleScenario.node[35].nic.mac1609_4 	SlotsBackoff 	7
scalar RSUExampleScenario.node[35].nic.mac1609_4 	NumInternalContention 	0
scalar RSUExampleScenario.node[35].nic.mac1609_4 	totalBusyTime 	0.002305
scalar RSUExampleScenario.node[35].veinsmobility 	startTime 	64
scalar RSUExampleScenario.node[35].veinsmobility 	totalTime 	648
scalar RSUExampleScenario.node[35].veinsmobility 	stopTime 	713
scalar RSUExampleScenario.node[35].veinsmobility 	minSpeed 	0
scalar RSUExampleScenario.node[35].veinsmobility 	maxSpeed 	16.657620351464
scalar RSUExampleScenario.node[35].veinsmobility 	totalDistance 	3246.6820403951
scalar RSUExampleScenario.node[35].veinsmobility 	totalCO2Emission 	1207.0444517993
scalar RSUExampleScenario.node[36].nic.phy80211p 	busyTime 	3.84e-06
scalar RSUExampleScenario.node[36].nic.mac1609_4 	ReceivedUnicastPackets 	0
scalar RSUExampleScenario.node[36].nic.mac1609_4 	ReceivedBroadcasts 	20
scalar RSUExampleScenario.node[36].nic.mac1609_4 	SentPackets 	1
scalar RSUExampleScenario.node[36].nic.mac1609_4 	SNIRLostPackets 	6
scalar RSUExampleScenario.node[36].nic.mac1609_4 	RXTXLostPackets 	0
scalar RSUExampleScenario.node[36].nic.mac1609_4 	TotalLostPackets 	6
scalar RSUExampleScenario.node[36].nic.mac1609_4 	DroppedPacketsInMac 	0
scalar RSUExampleScenario.node[36].nic.mac1609_4 	TooLittleTime 	0
scalar RSUExampleScenario.node[36].nic.mac1609_4 	TimesIntoBackoff 	1
scalar RSUExampleScenario.node[36].nic.mac1609_4 	SlotsBackoff 	0
scalar RSUExampleScenario.node[36].nic.mac1609_4 	NumInternalContention 	0
scalar RSUExampleScenario.node[36].nic.mac1609_4 	totalBusyTime 	0.002305
scalar RSUExampleScenario.node[36].veinsmobility 	startTime 	66
scalar RSUExampleScenario.node[36].veinsmobility 	totalTime 	649
scalar RSUExampleScenario.node[36].veinsmobility 	stopTime 	716
scalar RSUExampleScenario.node[36].veinsmobility 	minSpeed 	0
scalar RSUExampleScenario.node[36].veinsmobility 	maxSpeed 	16.66903800766
scalar RSUExampleScenario.node[36].veinsmobility 	totalDistance 	3256.0158811674
scalar RSUExampleScenario.node[36].veinsmobility 	totalCO2Emission 	1170.1204319163
scalar RSUExampleScenario.node[37].nic.phy80211p 	busyTime 	3.84e-06
scalar RSUExampleScenario.node[37].nic.mac1609_4 	ReceivedUnicastPackets 	0
scalar RSUExampleScenario.node[37].nic.mac1609_4 	ReceivedBroadcasts 	20
scalar RSUExampleScenario.node[37].nic.mac1609_4 	SentPackets 	1
scalar RSUExampleScenario.node[37].nic.mac1609_4 	SNIRLostPackets 	6
scalar RSUExampleScenario.node[37].nic.mac1609_4 	RXTXLostPackets 	0
scalar RSUExampleScenario.node[37].nic.mac1609_4 	TotalLostPackets 	6
scalar RSUExampleScenario.node[37].nic.mac1609_4 	DroppedPacketsInMac 	0
scalar RSUExampleScenario.node[37].nic.mac1609_4 	TooLittleTime 	0
scalar RSUExampleScenario.node[37].nic.mac1609_4 	TimesIntoBackoff 	1
scalar RSUExampleScenario.node[37].nic.mac1609_4 	SlotsBackoff 	5
scalar RSUExampleScenario.node[37].nic.mac1609_4 	NumInternalContention 	0
scalar RSUExampleScenario.node[37].nic.mac1609_4 	totalBusyTime 	0.002305
scalar RSUExampleScenario.node[37].veinsmobility 	startTime 	68
scalar RSUExampleScenario.node[37].veinsmobility 	totalTime 	649
scalar RSUExampleScenario.node[37].veinsmobility 	stopTime 	718
scalar RSUExampleScenario.node[37].veinsmobility 	minSpeed 	0
scalar RSUExampleScenario.node[37].veinsmobility 	maxSpeed 	16.665396585083
scalar RSUExampleScenario.node[37].veinsmobility 	totalDistance 	3251.3112087172
scalar RSUExampleScenario.node[37].veinsmobility 	totalCO2Emission 	1191.1556328096
scalar RSUExampleScenario.node[32].nic.phy80211p 	busyTime 	3.9154078549849e-06
scalar RSUExampleScenario.node[32].nic.mac1609_4 	ReceivedUnicastPackets 	0
scalar RSUExampleScenario.node[32].nic.mac1609_4 	ReceivedBroadcasts 	21
scalar RSUExampleScenario.node[32].nic.mac1609_4 	SentPackets 	1
scalar RSUExampleScenario.node[32].nic.mac1609_4 	SNIRLostPackets 	6
scalar RSUExampleScenario.node[32].nic.mac1609_4 	RXTXLostPackets 	0
scalar RSUExampleScenario.node[32].nic.mac1609_4 	TotalLostPackets 	6
scalar RSUExampleScenario.node[32].nic.mac1609_4 	DroppedPacketsInMac 	0
scalar RSUExampleScenario.node[32].nic.mac1609_4 	TooLittleTime 	0
scalar RSUExampleScenario.node[32].nic.mac1609_4 	TimesIntoBackoff 	2
scalar RSUExampleScenario.node[32].nic.mac1609_4 	SlotsBackoff 	3
scalar RSUExampleScenario.node[32].nic.mac1609_4 	NumInternalContention 	0
scalar RSUExampleScenario.node[32].nic.mac1609_4 	totalBusyTime 	0.002401
scalar RSUExampleScenario.node[32].veinsmobility 	startTime 	58
scalar RSUExampleScenario.node[32].veinsmobility 	totalTime 	661
scalar RSUExampleScenario.node[32].veinsmobility 	stopTime 	720
scalar RSUExampleScenario.node[32].veinsmobility 	minSpeed 	0
scalar RSUExampleScenario.node[32].veinsmobility 	maxSpeed 	16.654192569209
scalar RSUExampleScenario.node[32].veinsmobility 	totalDistance 	3253.9079558628
scalar RSUExampleScenario.node[32].veinsmobility 	totalCO2Emission 	1186.3011539108
scalar RSUExampleScenario.node[79].nic.phy80211p 	busyTime 	7.7005347593583e-06
scalar RSUExampleScenario.node[79].nic.mac1609_4 	ReceivedUnicastPackets 	0
scalar RSUExampleScenario.node[79].nic.mac1609_4 	ReceivedBroadcasts 	29
scalar RSUExampleScenario.node[79].nic.mac1609_4 	SentPackets 	1
scalar RSUExampleScenario.node[79].nic.mac1609_4 	SNIRLostPackets 	16
scalar RSUExampleScenario.node[79].nic.mac1609_4 	RXTXLostPackets 	0
scalar RSUExampleScenario.node[79].nic.mac1609_4 	TotalLostPackets 	16
scalar RSUExampleScenario.node[79].nic.mac1609_4 	DroppedPacketsInMac 	0
scalar RSUExampleScenario.node[79].nic.mac1609_4 	TooLittleTime 	0
scalar RSUExampleScenario.node[79].nic.mac1609_4 	TimesIntoBackoff 	2
scalar RSUExampleScenario.node[79].nic.mac1609_4 	SlotsBackoff 	8
scalar RSUExampleScenario.node[79].nic.mac1609_4 	NumInternalContention 	0
scalar RSUExampleScenario.node[79].nic.mac1609_4 	totalBusyTime 	0.003649061635
scalar RSUExampleScenario.node[79].veinsmobility 	startTime 	165
scalar RSUExampleScenario.node[79].veinsmobility 	totalTime 	560
scalar RSUExampleScenario.node[79].veinsmobility 	stopTime 	726
scalar RSUExampleScenario.node[79].veinsmobility 	minSpeed 	0
scalar RSUExampleScenario.node[79].veinsmobility 	maxSpeed 	27.762008926002
scalar RSUExampleScenario.node[79].veinsmobility 	totalDistance 	3396.4303595115
scalar RSUExampleScenario.node[79].veinsmobility 	totalCO2Emission 	1373.3709341635
scalar RSUExampleScenario.node[41].nic.phy80211p 	busyTime 	3.9693721286371e-06
scalar RSUExampleScenario.node[41].nic.mac1609_4 	ReceivedUnicastPackets 	0
scalar RSUExampleScenario.node[41].nic.mac1609_4 	ReceivedBroadcasts 	22
scalar RSUExampleScenario.node[41].nic.mac1609_4 	SentPackets 	1
scalar RSUExampleScenario.node[41].nic.mac1609_4 	SNIRLostPackets 	5
scalar RSUExampleScenario.node[41].nic.mac1609_4 	RXTXLostPackets 	0
scalar RSUExampleScenario.node[41].nic.mac1609_4 	TotalLostPackets 	5
scalar RSUExampleScenario.node[41].nic.mac1609_4 	DroppedPacketsInMac 	0
scalar RSUExampleScenario.node[41].nic.mac1609_4 	TooLittleTime 	0
scalar RSUExampleScenario.node[41].nic.mac1609_4 	TimesIntoBackoff 	2
scalar RSUExampleScenario.node[41].nic.mac1609_4 	SlotsBackoff 	3
scalar RSUExampleScenario.node[41].nic.mac1609_4 	NumInternalContention 	0
scalar RSUExampleScenario.node[41].nic.mac1609_4 	totalBusyTime 	0.002401
scalar RSUExampleScenario.node[41].veinsmobility 	startTime 	76
scalar RSUExampleScenario.node[41].veinsmobility 	totalTime 	652
scalar RSUExampleScenario.node[41].veinsmobility 	stopTime 	729
scalar RSUExampleScenario.node[41].veinsmobility 	minSpeed 	0
scalar RSUExampleScenario.node[41].veinsmobility 	maxSpeed 	16.669253713838
scalar RSUExampleScenario.node[41].veinsmobility 	totalDistance 	3253.7665182518
scalar RSUExampleScenario.node[41].veinsmobility 	totalCO2Emission 	1196.2306269679
scalar RSUExampleScenario.node[38].nic.phy80211p 	busyTime 	3.6308623298033e-06
scalar RSUExampleScenario.node[38].nic.mac1609_4 	ReceivedUnicastPackets 	0
scalar RSUExampleScenario.node[38].nic.mac1609_4 	ReceivedBroadcasts 	21
scalar RSUExampleScenario.node[38].nic.mac1609_4 	SentPackets 	1
scalar RSUExampleScenario.node[38].nic.mac1609_4 	SNIRLostPackets 	4
scalar RSUExampleScenario.node[38].nic.mac1609_4 	RXTXLostPackets 	1
scalar RSUExampleScenario.node[38].nic.mac1609_4 	TotalLostPackets 	5
scalar RSUExampleScenario.node[38].nic.mac1609_4 	DroppedPacketsInMac 	0
scalar RSUExampleScenario.node[38].nic.mac1609_4 	TooLittleTime 	0
scalar RSUExampleScenario.node[38].nic.mac1609_4 	TimesIntoBackoff 	1
scalar RSUExampleScenario.node[38].nic.mac1609_4 	SlotsBackoff 	6
scalar RSUExampleScenario.node[38].nic.mac1609_4 	NumInternalContention 	0
scalar RSUExampleScenario.node[38].nic.mac1609_4 	totalBusyTime 	0.002305
scalar RSUExampleScenario.node[38].veinsmobility 	startTime 	70
scalar RSUExampleScenario.node[38].veinsmobility 	totalTime 	660
scalar RSUExampleScenario.node[38].veinsmobility 	stopTime 	731
scalar RSUExampleScenario.node[38].veinsmobility 	minSpeed 	0
scalar RSUExampleScenario.node[38].veinsmobility 	maxSpeed 	16.650875634877
scalar RSUExampleScenario.node[38].veinsmobility 	totalDistance 	3248.9968067692
scalar RSUExampleScenario.node[38].veinsmobility 	totalCO2Emission 	1238.6396862682
scalar RSUExampleScenario.node[66].nic.phy80211p 	busyTime 	6.5709515859766e-06
scalar RSUExampleScenario.node[66].nic.mac1609_4 	ReceivedUnicastPackets 	0
scalar RSUExampleScenario.node[66].nic.mac1609_4 	ReceivedBroadcasts 	11
scalar RSUExampleScenario.node[66].nic.mac1609_4 	SentPackets 	1
scalar RSUExampleScenario.node[66].nic.mac1609_4 	SNIRLostPackets 	30
scalar RSUExampleScenario.node[66].nic.mac1609_4 	RXTXLostPackets 	0
scalar RSUExampleScenario.node[66].nic.mac1609_4 	TotalLostPackets 	30
scalar RSUExampleScenario.node[66].nic.mac1609_4 	DroppedPacketsInMac 	0
scalar RSUExampleScenario.node[66].nic.mac1609_4 	TooLittleTime 	0
scalar RSUExampleScenario.node[66].nic.mac1609_4 	TimesIntoBackoff 	1
scalar RSUExampleScenario.node[66].nic.mac1609_4 	SlotsBackoff 	1
scalar RSUExampleScenario.node[66].nic.mac1609_4 	NumInternalContention 	0
scalar RSUExampleScenario.node[66].nic.mac1609_4 	totalBusyTime 	0.002497
scalar RSUExampleScenario.node[66].veinsmobility 	startTime 	135
scalar RSUExampleScenario.node[66].veinsmobility 	totalTime 	598
scalar RSUExampleScenario.node[66].veinsmobility 	stopTime 	734
scalar RSUExampleScenario.node[66].veinsmobility 	minSpeed 	0
scalar RSUExampleScenario.node[66].veinsmobility 	maxSpeed 	26.75108834171
scalar RSUExampleScenario.node[66].veinsmobility 	totalDistance 	3416.1406910075
scalar RSUExampleScenario.node[66].veinsmobility 	totalCO2Emission 	1359.2845173808
scalar RSUExampleScenario.node[94].nic.phy80211p 	busyTime 	5.3631284916201e-06
scalar RSUExampleScenario.node[94].nic.mac1609_4 	ReceivedUnicastPackets 	0
scalar RSUExampleScenario.node[94].nic.mac1609_4 	ReceivedBroadcasts 	22
scalar RSUExampleScenario.node[94].nic.mac1609_4 	SentPackets 	1
scalar RSUExampleScenario.node[94].nic.mac1609_4 	SNIRLostPackets 	8
scalar RSUExampleScenario.node[94].nic.mac1609_4 	RXTXLostPackets 	0
scalar RSUExampleScenario.node[94].nic.mac1609_4 	TotalLostPackets 	8
scalar RSUExampleScenario.node[94].nic.mac1609_4 	DroppedPacketsInMac 	0
scalar RSUExampleScenario.node[94].nic.mac1609_4 	TooLittleTime 	0
scalar RSUExampleScenario.node[94].nic.mac1609_4 	TimesIntoBackoff 	1
scalar RSUExampleScenario.node[94].nic.mac1609_4 	SlotsBackoff 	4
scalar RSUExampleScenario.node[94].nic.mac1609_4 	NumInternalContention 	0
scalar RSUExampleScenario.node[94].nic.mac1609_4 	totalBusyTime 	0.002593
scalar RSUExampleScenario.node[94].veinsmobility 	startTime 	206
scalar RSUExampleScenario.node[94].veinsmobility 	totalTime 	536
scalar RSUExampleScenario.node[94].veinsmobility 	stopTime 	743
scalar RSUExampleScenario.node[94].veinsmobility 	minSpeed 	0
scalar RSUExampleScenario.node[94].veinsmobility 	maxSpeed 	27.777548783349
scalar RSUExampleScenario.node[94].veinsmobility 	totalDistance 	3395.9356778247
scalar RSUExampleScenario.node[94].veinsmobility 	totalCO2Emission 	1081.032233999
scalar RSUExampleScenario.node[31].nic.phy80211p 	busyTime 	4.3193033381713e-06
scalar RSUExampleScenario.node[31].nic.mac1609_4 	ReceivedUnicastPackets 	0
scalar RSUExampleScenario.node[31].nic.mac1609_4 	ReceivedBroadcasts 	21
scalar RSUExampleScenario.node[31].nic.mac1609_4 	SentPackets 	1
[...]
scalar RSUExampleScenario.node[376].veinsmobility 	minSpeed 	0
scalar RSUExampleScenario.node[376].veinsmobility 	maxSpeed 	27.776714086349
scalar RSUExampleScenario.node[376].veinsmobility 	totalDistance 	3393.6683798608
scalar RSUExampleScenario.node[376].veinsmobility 	totalCO2Emission 	1142.6631828223
scalar RSUExampleScenario.node[377].nic.phy80211p 	busyTime 	2.0628099173554e-06
scalar RSUExampleScenario.node[377].nic.mac1609_4 	ReceivedUnicastPackets 	0
scalar RSUExampleScenario.node[377].nic.mac1609_4 	ReceivedBroadcasts 	13
scalar RSUExampleScenario.node[377].nic.mac1609_4 	SentPackets 	1
scalar RSUExampleScenario.node[377].nic.mac1609_4 	SNIRLostPackets 	0
scalar RSUExampleScenario.node[377].nic.mac1609_4 	RXTXLostPackets 	0
scalar RSUExampleScenario.node[377].nic.mac1609_4 	TotalLostPackets 	0
scalar RSUExampleScenario.node[377].nic.mac1609_4 	DroppedPacketsInMac 	0
scalar RSUExampleScenario.node[377].nic.mac1609_4 	TooLittleTime 	0
scalar RSUExampleScenario.node[377].nic.mac1609_4 	TimesIntoBackoff 	1
scalar RSUExampleScenario.node[377].nic.mac1609_4 	SlotsBackoff 	0
scalar RSUExampleScenario.node[377].nic.mac1609_4 	NumInternalContention 	0
scalar RSUExampleScenario.node[377].nic.mac1609_4 	totalBusyTime 	0.001345
scalar RSUExampleScenario.node[377].veinsmobility 	startTime 	1927
scalar RSUExampleScenario.node[377].veinsmobility 	totalTime 	604
scalar RSUExampleScenario.node[377].veinsmobility 	stopTime 	2532
scalar RSUExampleScenario.node[377].veinsmobility 	minSpeed 	0
scalar RSUExampleScenario.node[377].veinsmobility 	maxSpeed 	27.777666079454
scalar RSUExampleScenario.node[377].veinsmobility 	totalDistance 	3396.1411400149
scalar RSUExampleScenario.node[377].veinsmobility 	totalCO2Emission 	1100.938896515
scalar RSUExampleScenario.node[378].nic.phy80211p 	busyTime 	1.9259259259259e-06
scalar RSUExampleScenario.node[378].nic.mac1609_4 	ReceivedUnicastPackets 	0
scalar RSUExampleScenario.node[378].nic.mac1609_4 	ReceivedBroadcasts 	13
scalar RSUExampleScenario.node[378].nic.mac1609_4 	SentPackets 	1
scalar RSUExampleScenario.node[378].nic.mac1609_4 	SNIRLostPackets 	0
scalar RSUExampleScenario.node[378].nic.mac1609_4 	RXTXLostPackets 	0
scalar RSUExampleScenario.node[378].nic.mac1609_4 	TotalLostPackets 	0
scalar RSUExampleScenario.node[378].nic.mac1609_4 	DroppedPacketsInMac 	0
scalar RSUExampleScenario.node[378].nic.mac1609_4 	TooLittleTime 	0
scalar RSUExampleScenario.node[378].nic.mac1609_4 	TimesIntoBackoff 	1
scalar RSUExampleScenario.node[378].nic.mac1609_4 	SlotsBackoff 	4
scalar RSUExampleScenario.node[378].nic.mac1609_4 	NumInternalContention 	0
scalar RSUExampleScenario.node[378].nic.mac1609_4 	totalBusyTime 	0.001345
scalar RSUExampleScenario.node[378].veinsmobility 	startTime 	1929
scalar RSUExampleScenario.node[378].veinsmobility 	totalTime 	647
scalar RSUExampleScenario.node[378].veinsmobility 	stopTime 	2577
scalar RSUExampleScenario.node[378].veinsmobility 	minSpeed 	0
scalar RSUExampleScenario.node[378].veinsmobility 	maxSpeed 	27.766890948731
scalar RSUExampleScenario.node[378].veinsmobility 	totalDistance 	3400.38060097
scalar RSUExampleScenario.node[378].veinsmobility 	totalCO2Emission 	1176.614255209
scalar RSUExampleScenario.node[379].nic.phy80211p 	busyTime 	1.9229583975347e-06
scalar RSUExampleScenario.node[379].nic.mac1609_4 	ReceivedUnicastPackets 	0
scalar RSUExampleScenario.node[379].nic.mac1609_4 	ReceivedBroadcasts 	13
scalar RSUExampleScenario.node[379].nic.mac1609_4 	SentPackets 	1
scalar RSUExampleScenario.node[379].nic.mac1609_4 	SNIRLostPackets 	0
scalar RSUExampleScenario.node[379].nic.mac1609_4 	RXTXLostPackets 	0
scalar RSUExampleScenario.node[379].nic.mac1609_4 	TotalLostPackets 	0
scalar RSUExampleScenario.node[379].nic.mac1609_4 	DroppedPacketsInMac 	0
scalar RSUExampleScenario.node[379].nic.mac1609_4 	TooLittleTime 	0
scalar RSUExampleScenario.node[379].nic.mac1609_4 	TimesIntoBackoff 	1
scalar RSUExampleScenario.node[379].nic.mac1609_4 	SlotsBackoff 	6
scalar RSUExampleScenario.node[379].nic.mac1609_4 	NumInternalContention 	0
scalar RSUExampleScenario.node[379].nic.mac1609_4 	totalBusyTime 	0.001345
scalar RSUExampleScenario.node[379].veinsmobility 	startTime 	1932
scalar RSUExampleScenario.node[379].veinsmobility 	totalTime 	648
scalar RSUExampleScenario.node[379].veinsmobility 	stopTime 	2581
scalar RSUExampleScenario.node[379].veinsmobility 	minSpeed 	0
scalar RSUExampleScenario.node[379].veinsmobility 	maxSpeed 	27.766531133539
scalar RSUExampleScenario.node[379].veinsmobility 	totalDistance 	3396.8484790067
scalar RSUExampleScenario.node[379].veinsmobility 	totalCO2Emission 	1168.6291954738
scalar RSUExampleScenario.node[380].nic.phy80211p 	busyTime 	1.9082568807339e-06
scalar RSUExampleScenario.node[380].nic.mac1609_4 	ReceivedUnicastPackets 	0
scalar RSUExampleScenario.node[380].nic.mac1609_4 	ReceivedBroadcasts 	13
scalar RSUExampleScenario.node[380].nic.mac1609_4 	SentPackets 	1
scalar RSUExampleScenario.node[380].nic.mac1609_4 	SNIRLostPackets 	0
scalar RSUExampleScenario.node[380].nic.mac1609_4 	RXTXLostPackets 	0
scalar RSUExampleScenario.node[380].nic.mac1609_4 	TotalLostPackets 	0
scalar RSUExampleScenario.node[380].nic.mac1609_4 	DroppedPacketsInMac 	0
scalar RSUExampleScenario.node[380].nic.mac1609_4 	TooLittleTime 	0
scalar RSUExampleScenario.node[380].nic.mac1609_4 	TimesIntoBackoff 	1
scalar RSUExampleScenario.node[380].nic.mac1609_4 	SlotsBackoff 	1
scalar RSUExampleScenario.node[380].nic.mac1609_4 	NumInternalContention 	0
scalar RSUExampleScenario.node[380].nic.mac1609_4 	totalBusyTime 	0.001345
scalar RSUExampleScenario.node[380].veinsmobility 	startTime 	1934
scalar RSUExampleScenario.node[380].veinsmobility 	totalTime 	653
scalar RSUExampleScenario.node[380].veinsmobility 	stopTime 	2588
scalar RSUExampleScenario.node[380].veinsmobility 	minSpeed 	0
scalar RSUExampleScenario.node[380].veinsmobility 	maxSpeed 	27.777655779473
scalar RSUExampleScenario.node[380].veinsmobility 	totalDistance 	3392.1260483462
scalar RSUExampleScenario.node[380].veinsmobility 	totalCO2Emission 	1152.850136512
scalar RSUExampleScenario.node[381].nic.phy80211p 	busyTime 	1.8995433789954e-06
scalar RSUExampleScenario.node[381].nic.mac1609_4 	ReceivedUnicastPackets 	0
scalar RSUExampleScenario.node[381].nic.mac1609_4 	ReceivedBroadcasts 	13
scalar RSUExampleScenario.node[381].nic.mac1609_4 	SentPackets 	1
scalar RSUExampleScenario.node[381].nic.mac1609_4 	SNIRLostPackets 	0
scalar RSUExampleScenario.node[381].nic.mac1609_4 	RXTXLostPackets 	0
scalar RSUExampleScenario.node[381].nic.mac1609_4 	TotalLostPackets 	0
scalar RSUExampleScenario.node[381].nic.mac1609_4 	DroppedPacketsInMac 	0
scalar RSUExampleScenario.node[381].nic.mac1609_4 	TooLittleTime 	0
scalar RSUExampleScenario.node[381].nic.mac1609_4 	TimesIntoBackoff 	1
scalar RSUExampleScenario.node[381].nic.mac1609_4 	SlotsBackoff 	0
scalar RSUExampleScenario.node[381].nic.mac1609_4 	NumInternalContention 	0
scalar RSUExampleScenario.node[381].nic.mac1609_4 	totalBusyTime 	0.001345
scalar RSUExampleScenario.node[381].veinsmobility 	startTime 	1936
scalar RSUExampleScenario.node[381].veinsmobility 	totalTime 	656
scalar RSUExampleScenario.node[381].veinsmobility 	stopTime 	2593
scalar RSUExampleScenario.node[381].veinsmobility 	minSpeed 	0
scalar RSUExampleScenario.node[381].veinsmobility 	maxSpeed 	27.775239493645
scalar RSUExampleScenario.node[381].veinsmobility 	totalDistance 	3398.0292467294
scalar RSUExampleScenario.node[381].veinsmobility 	totalCO2Emission 	1187.1098039821
scalar RSUExampleScenario.node[382].nic.phy80211p 	busyTime 	1.8626865671642e-06
scalar RSUExampleScenario.node[382].nic.mac1609_4 	ReceivedUnicastPackets 	0
scalar RSUExampleScenario.node[382].nic.mac1609_4 	ReceivedBroadcasts 	13
scalar RSUExampleScenario.node[382].nic.mac1609_4 	SentPackets 	1
scalar RSUExampleScenario.node[382].nic.mac1609_4 	SNIRLostPackets 	0
scalar RSUExampleScenario.node[382].nic.mac1609_4 	RXTXLostPackets 	0
scalar RSUExampleScenario.node[382].nic.mac1609_4 	TotalLostPackets 	0
scalar RSUExampleScenario.node[382].nic.mac1609_4 	DroppedPacketsInMac 	0
scalar RSUExampleScenario.node[382].nic.mac1609_4 	TooLittleTime 	0
scalar RSUExampleScenario.node[382].nic.mac1609_4 	TimesIntoBackoff 	1
scalar RSUExampleScenario.node[382].nic.mac1609_4 	SlotsBackoff 	4
scalar RSUExampleScenario.node[382].nic.mac1609_4 	NumInternalContention 	0
scalar RSUExampleScenario.node[382].nic.mac1609_4 	totalBusyTime 	0.001345
scalar RSUExampleScenario.node[382].veinsmobility 	startTime 	1941
scalar RSUExampleScenario.node[382].veinsmobility 	totalTime 	669
scalar RSUExampleScenario.node[382].veinsmobility 	stopTime 	2611
scalar RSUExampleScenario.node[382].veinsmobility 	minSpeed 	0
scalar RSUExampleScenario.node[382].veinsmobility 	maxSpeed 	27.772597123386
scalar RSUExampleScenario.node[382].veinsmobility 	totalDistance 	3400.1955296474
scalar RSUExampleScenario.node[382].veinsmobility 	totalCO2Emission 	1198.2526677806
scalar RSUExampleScenario.node[383].nic.phy80211p 	busyTime 	9.216e-07
scalar RSUExampleScenario.node[383].nic.mac1609_4 	ReceivedUnicastPackets 	0
scalar RSUExampleScenario.node[383].nic.mac1609_4 	ReceivedBroadcasts 	6
scalar RSUExampleScenario.node[383].nic.mac1609_4 	SentPackets 	1
scalar RSUExampleScenario.node[383].nic.mac1609_4 	SNIRLostPackets 	0
scalar RSUExampleScenario.node[383].nic.mac1609_4 	RXTXLostPackets 	0
scalar RSUExampleScenario.node[383].nic.mac1609_4 	TotalLostPackets 	0
scalar RSUExampleScenario.node[383].nic.mac1609_4 	DroppedPacketsInMac 	0
scalar RSUExampleScenario.node[383].nic.mac1609_4 	TooLittleTime 	0
scalar RSUExampleScenario.node[383].nic.mac1609_4 	TimesIntoBackoff 	1
scalar RSUExampleScenario.node[383].nic.mac1609_4 	SlotsBackoff 	5
scalar RSUExampleScenario.node[383].nic.mac1609_4 	NumInternalContention 	0
scalar RSUExampleScenario.node[383].nic.mac1609_4 	totalBusyTime 	0.000673
scalar RSUExampleScenario.node[383].veinsmobility 	startTime 	2070
scalar RSUExampleScenario.node[383].veinsmobility 	totalTime 	624
scalar RSUExampleScenario.node[383].veinsmobility 	stopTime 	2695
scalar RSUExampleScenario.node[383].veinsmobility 	minSpeed 	0
scalar RSUExampleScenario.node[383].veinsmobility 	maxSpeed 	27.77993463981
scalar RSUExampleScenario.node[383].veinsmobility 	totalDistance 	3397.3841201825
scalar RSUExampleScenario.node[383].veinsmobility 	totalCO2Emission 	1219.396450658
scalar RSUExampleScenario.node[384].nic.phy80211p 	busyTime 	9.1573926868045e-07
scalar RSUExampleScenario.node[384].nic.mac1609_4 	ReceivedUnicastPackets 	0
scalar RSUExampleScenario.node[384].nic.mac1609_4 	ReceivedBroadcasts 	6
scalar RSUExampleScenario.node[384].nic.mac1609_4 	SentPackets 	1
scalar RSUExampleScenario.node[384].nic.mac1609_4 	SNIRLostPackets 	0
scalar RSUExampleScenario.node[384].nic.mac1609_4 	RXTXLostPackets 	0
scalar RSUExampleScenario.node[384].nic.mac1609_4 	TotalLostPackets 	0
scalar RSUExampleScenario.node[384].nic.mac1609_4 	DroppedPacketsInMac 	0
scalar RSUExampleScenario.node[384].nic.mac1609_4 	TooLittleTime 	0
scalar RSUExampleScenario.node[384].nic.mac1609_4 	TimesIntoBackoff 	1
scalar RSUExampleScenario.node[384].nic.mac1609_4 	SlotsBackoff 	4
scalar RSUExampleScenario.node[384].nic.mac1609_4 	NumInternalContention 	0
scalar RSUExampleScenario.node[384].nic.mac1609_4 	totalBusyTime 	0.000673
scalar RSUExampleScenario.node[384].veinsmobility 	startTime 	2072
scalar RSUExampleScenario.node[384].veinsmobility 	totalTime 	628
scalar RSUExampleScenario.node[384].veinsmobility 	stopTime 	2701
scalar RSUExampleScenario.node[384].veinsmobility 	minSpeed 	0
scalar RSUExampleScenario.node[384].veinsmobility 	maxSpeed 	27.759429493725
scalar RSUExampleScenario.node[384].veinsmobility 	totalDistance 	3398.2498297135
scalar RSUExampleScenario.node[384].veinsmobility 	totalCO2Emission 	1202.1073631107
scalar RSUExampleScenario.node[385].nic.phy80211p 	busyTime 	9.1428571428571e-07
scalar RSUExampleScenario.node[385].nic.mac1609_4 	ReceivedUnicastPackets 	0
scalar RSUExampleScenario.node[385].nic.mac1609_4 	ReceivedBroadcasts 	6
scalar RSUExampleScenario.node[385].nic.mac1609_4 	SentPackets 	1
scalar RSUExampleScenario.node[385].nic.mac1609_4 	SNIRLostPackets 	0
scalar RSUExampleScenario.node[385].nic.mac1609_4 	RXTXLostPackets 	0
scalar RSUExampleScenario.node[385].nic.mac1609_4 	TotalLostPackets 	0
scalar RSUExampleScenario.node[385].nic.mac1609_4 	DroppedPacketsInMac 	0
scalar RSUExampleScenario.node[385].nic.mac1609_4 	TooLittleTime 	0
scalar RSUExampleScenario.node[385].nic.mac1609_4 	TimesIntoBackoff 	1
scalar RSUExampleScenario.node[385].nic.mac1609_4 	SlotsBackoff 	1
scalar RSUExampleScenario.node[385].nic.mac1609_4 	NumInternalContention 	0
scalar RSUExampleScenario.node[385].nic.mac1609_4 	totalBusyTime 	0.000673
scalar RSUExampleScenario.node[385].veinsmobility 	startTime 	2074
scalar RSUExampleScenario.node[385].veinsmobility 	totalTime 	629
scalar RSUExampleScenario.node[385].veinsmobility 	stopTime 	2704
scalar RSUExampleScenario.node[385].veinsmobility 	minSpeed 	0
scalar RSUExampleScenario.node[385].veinsmobility 	maxSpeed 	27.775665786408
scalar RSUExampleScenario.node[385].veinsmobility 	totalDistance 	3391.6901581323
scalar RSUExampleScenario.node[385].veinsmobility 	totalCO2Emission 	1186.7905360867
scalar RSUExampleScenario.node[386].nic.phy80211p 	busyTime 	9.1283676703645e-07
scalar RSUExampleScenario.node[386].nic.mac1609_4 	ReceivedUnicastPackets 	0
scalar RSUExampleScenario.node[386].nic.mac1609_4 	ReceivedBroadcasts 	6
scalar RSUExampleScenario.node[386].nic.mac1609_4 	SentPackets 	1
scalar RSUExampleScenario.node[386].nic.mac1609_4 	SNIRLostPackets 	0
scalar RSUExampleScenario.node[386].nic.mac1609_4 	RXTXLostPackets 	0
scalar RSUExampleScenario.node[386].nic.mac1609_4 	TotalLostPackets 	0
scalar RSUExampleScenario.node[386].nic.mac1609_4 	DroppedPacketsInMac 	0
scalar RSUExampleScenario.node[386].nic.mac1609_4 	TooLittleTime 	0
scalar RSUExampleScenario.node[386].nic.mac1609_4 	TimesIntoBackoff 	1
scalar RSUExampleScenario.node[386].nic.mac1609_4 	SlotsBackoff 	1
scalar RSUExampleScenario.node[386].nic.mac1609_4 	NumInternalContention 	0
scalar RSUExampleScenario.node[386].nic.mac1609_4 	totalBusyTime 	0.000673
scalar RSUExampleScenario.node[386].veinsmobility 	startTime 	2076
scalar RSUExampleScenario.node[386].veinsmobility 	totalTime 	630
scalar RSUExampleScenario.node[386].veinsmobility 	stopTime 	2707
scalar RSUExampleScenario.node[386].veinsmobility 	minSpeed 	0
scalar RSUExampleScenario.node[386].veinsmobility 	maxSpeed 	27.762716054014
scalar RSUExampleScenario.node[386].veinsmobility 	totalDistance 	3394.0628766658
scalar RSUExampleScenario.node[386].veinsmobility 	totalCO2Emission 	1144.9238825301
scalar RSUExampleScenario.node[387].nic.phy80211p 	busyTime 	8.7537993920973e-07
scalar RSUExampleScenario.node[387].nic.mac1609_4 	ReceivedUnicastPackets 	0
scalar RSUExampleScenario.node[387].nic.mac1609_4 	ReceivedBroadcasts 	6
scalar RSUExampleScenario.node[387].nic.mac1609_4 	SentPackets 	1
scalar RSUExampleScenario.node[387].nic.mac1609_4 	SNIRLostPackets 	0
scalar RSUExampleScenario.node[387].nic.mac1609_4 	RXTXLostPackets 	0
scalar RSUExampleScenario.node[387].nic.mac1609_4 	TotalLostPackets 	0
scalar RSUExampleScenario.node[387].nic.mac1609_4 	DroppedPacketsInMac 	0
scalar RSUExampleScenario.node[387].nic.mac1609_4 	TooLittleTime 	0
scalar RSUExampleScenario.node[387].nic.mac1609_4 	TimesIntoBackoff 	1
scalar RSUExampleScenario.node[387].nic.mac1609_4 	SlotsBackoff 	0
scalar RSUExampleScenario.node[387].nic.mac1609_4 	NumInternalContention 	0
scalar RSUExampleScenario.node[387].nic.mac1609_4 	totalBusyTime 	0.000673
scalar RSUExampleScenario.node[387].veinsmobility 	startTime 	2078
scalar RSUExampleScenario.node[387].veinsmobility 	totalTime 	657
scalar RSUExampleScenario.node[387].veinsmobility 	stopTime 	2736
scalar RSUExampleScenario.node[387].veinsmobility 	minSpeed 	0
scalar RSUExampleScenario.node[387].veinsmobility 	maxSpeed 	27.777320610081
scalar RSUExampleScenario.node[387].veinsmobility 	totalDistance 	3396.842849519
scalar RSUExampleScenario.node[387].veinsmobility 	totalCO2Emission 	1163.1024055703
scalar RSUExampleScenario.node[388].nic.phy80211p 	busyTime 	8.609865470852e-07
scalar RSUExampleScenario.node[388].nic.mac1609_4 	ReceivedUnicastPackets 	0
scalar RSUExampleScenario.node[388].nic.mac1609_4 	ReceivedBroadcasts 	6
scalar RSUExampleScenario.node[388].nic.mac1609_4 	SentPackets 	1
scalar RSUExampleScenario.node[388].nic.mac1609_4 	SNIRLostPackets 	0
scalar RSUExampleScenario.node[388].nic.mac1609_4 	RXTXLostPackets 	0
scalar RSUExampleScenario.node[388].nic.mac1609_4 	TotalLostPackets 	0
scalar RSUExampleScenario.node[388].nic.mac1609_4 	DroppedPacketsInMac 	0
scalar RSUExampleScenario.node[388].nic.mac1609_4 	TooLittleTime 	0
scalar RSUExampleScenario.node[388].nic.mac1609_4 	TimesIntoBackoff 	1
scalar RSUExampleScenario.node[388].nic.mac1609_4 	SlotsBackoff 	0
scalar RSUExampleScenario.node[388].nic.mac1609_4 	NumInternalContention 	0
scalar RSUExampleScenario.node[388].nic.mac1609_4 	totalBusyTime 	0.000673
scalar RSUExampleScenario.node[388].veinsmobility 	startTime 	2080
scalar RSUExampleScenario.node[388].veinsmobility 	totalTime 	668
scalar RSUExampleScenario.node[388].veinsmobility 	stopTime 	2749
scalar RSUExampleScenario.node[388].veinsmobility 	minSpeed 	0
scalar RSUExampleScenario.node[388].veinsmobility 	maxSpeed 	27.778107485175
scalar RSUExampleScenario.node[388].veinsmobility 	totalDistance 	3400.2721287108
scalar RSUExampleScenario.node[388].veinsmobility 	totalCO2Emission 	1193.9245238496
scalar RSUExampleScenario.node[389].nic.phy80211p 	busyTime 	8.5842026825633e-07
scalar RSUExampleScenario.node[389].nic.mac1609_4 	ReceivedUnicastPackets 	0
scalar RSUExampleScenario.node[389].nic.mac1609_4 	ReceivedBroadcasts 	6
scalar RSUExampleScenario.node[389].nic.mac1609_4 	SentPackets 	1
scalar RSUExampleScenario.node[389].nic.mac1609_4 	SNIRLostPackets 	0
scalar RSUExampleScenario.node[389].nic.mac1609_4 	RXTXLostPackets 	0
scalar RSUExampleScenario.node[389].nic.mac1609_4 	TotalLostPackets 	0
scalar RSUExampleScenario.node[389].nic.mac1609_4 	DroppedPacketsInMac 	0
scalar RSUExampleScenario.node[389].nic.mac1609_4 	TooLittleTime 	0
scalar RSUExampleScenario.node[389].nic.mac1609_4 	TimesIntoBackoff 	1
scalar RSUExampleScenario.node[389].nic.mac1609_4 	SlotsBackoff 	3
scalar RSUExampleScenario.node[389].nic.mac1609_4 	NumInternalContention 	0
scalar RSUExampleScenario.node[389].nic.mac1609_4 	totalBusyTime 	0.000673
scalar RSUExampleScenario.node[389].veinsmobility 	startTime 	2082
scalar RSUExampleScenario.node[389].veinsmobility 	totalTime 	670
scalar RSUExampleScenario.node[389].veinsmobility 	stopTime 	2753
scalar RSUExampleScenario.node[389].veinsmobility 	minSpeed 	0
scalar RSUExampleScenario.node[389].veinsmobility 	maxSpeed 	27.763646015588
scalar RSUExampleScenario.node[389].veinsmobility 	totalDistance 	3395.244086161
scalar RSUExampleScenario.node[389].veinsmobility 	totalCO2Emission 	1216.0694414347
scalar RSUExampleScenario.rsu[0].nic.phy80211p 	busyTime 	1.44e-07
scalar RSUExampleScenario.rsu[0].nic.mac1609_4 	ReceivedUnicastPackets 	0
scalar RSUExampleScenario.rsu[0].nic.mac1609_4 	ReceivedBroadcasts 	15
scalar RSUExampleScenario.rsu[0].nic.mac1609_4 	SentPackets 	1
scalar RSUExampleScenario.rsu[0].nic.mac1609_4 	SNIRLostPackets 	0
scalar RSUExampleScenario.rsu[0].nic.mac1609_4 	RXTXLostPackets 	1
scalar RSUExampleScenario.rsu[0].nic.mac1609_4 	TotalLostPackets 	1
scalar RSUExampleScenario.rsu[0].nic.mac1609_4 	DroppedPacketsInMac 	0
scalar RSUExampleScenario.rsu[0].nic.mac1609_4 	TooLittleTime 	0
scalar RSUExampleScenario.rsu[0].nic.mac1609_4 	TimesIntoBackoff 	1
scalar RSUExampleScenario.rsu[0].nic.mac1609_4 	SlotsBackoff 	1
scalar RSUExampleScenario.rsu[0].nic.mac1609_4 	NumInternalContention 	0
scalar RSUExampleScenario.rsu[0].nic.mac1609_4 	totalBusyTime 	0.001537
