file 38388432 1482402244                                        
version 2
run debug-0-20161222-11:20:12-2752
attr configname debug
attr datetime 20161222-11:20:12
attr experiment debug
attr inifile omnetpp.ini
attr iterationvars ""
attr iterationvars2 $repetition=0
attr measurement ""
attr network RSUExampleScenario
attr processid 2752
attr repetition 0
attr replication #0
attr resultdir results
attr runnumber 0
attr seedset 0
param **.coreDebug false
param **.debug false
param *.**.nic.mac1609_4.bitrate 27Mbps
param *.**.nic.mac1609_4.txPower 20mW
param *.**.nic.mac1609_4.useServiceChannel false
param *.**.nic.phy80211p.analogueModels "xmldoc(\"config.xml\")"
param *.**.nic.phy80211p.decider "xmldoc(\"config.xml\")"
param *.**.nic.phy80211p.sensitivity -89dBm
param *.**.nic.phy80211p.thermalNoise -110dBm
param *.**.nic.phy80211p.usePropagationDelay true
param *.**.nic.phy80211p.useThermalNoise true
param *.annotations.draw false
param *.connectionManager.alpha 2.0
param *.connectionManager.carrierFrequency "5.890e9 Hz"
param *.connectionManager.pMax 35mW
param *.connectionManager.sat -89dBm
param *.connectionManager.sendDirect true
param *.manager.autoShutdown true
param *.manager.host "\"localhost\""
param *.manager.launchConfig "xmldoc(\"erlangen.launchd.xml\")"
param *.manager.margin 25
param *.manager.moduleDisplayString "\"\""
param *.manager.moduleName "\"node\""
param *.manager.moduleType "\"org.car2x.veins.nodes.Car\""
param *.manager.port 9999
param *.manager.updateInterval 1s
param *.node[*].appl.beaconInterval 1s
param *.node[*].appl.beaconPriority 3
param *.node[*].appl.dataOnSch false
param *.node[*].appl.dataPriority 2
param *.node[*].appl.debug false
param *.node[*].appl.headerLength "256 bit"
param *.node[*].appl.maxOffset 0.005s
param *.node[*].appl.sendBeacons false
param *.node[*].appl.sendData true
param *.node[*].applType "\"TraCIDemo11p\""
param *.node[*].mobilityType "\"TraCIMobility\""
param *.node[*].mobilityType.debug true
param *.node[*].veinsmobility.accidentCount 5
param *.node[*].veinsmobility.accidentDuration 43s
param *.node[*].veinsmobility.accidentStart 85s
param *.node[*].veinsmobility.x 0
param *.node[*].veinsmobility.y 0
param *.node[*].veinsmobility.z 1.895
param *.node[*].veinsmobilityType "\"org.car2x.veins.modules.mobility.traci.TraCIMobility\""
param *.node[*].veinsmobilityType.debug true
param *.obstacles.debug false
param *.obstacles.obstacles "xmldoc(\"config.xml\", \"//AnalogueModel[@type='SimpleObstacleShadowing']/obstacles\")"
param *.playgroundSizeX 2500m
param *.playgroundSizeY 2500m
param *.playgroundSizeZ 50m
param *.rsu[*].appl.beaconInterval 1s
param *.rsu[*].appl.beaconPriority 3
param *.rsu[*].appl.dataOnSch false
param *.rsu[*].appl.dataPriority 2
param *.rsu[*].appl.debug false
param *.rsu[*].appl.headerLength "256 bit"
param *.rsu[*].appl.maxOffset 0.005s
param *.rsu[*].appl.sendBeacons false
param *.rsu[*].appl.sendData true
param *.rsu[*].applType "\"TraCIDemoRSU11p\""
param *.rsu[0].mobility.x 2000
param *.rsu[0].mobility.y 2000
param *.rsu[0].mobility.z 3
param *.world.use2D false
param *.world.useTorus false

vector 4  RSUExampleScenario.node[0].veinsmobility  posx  ETV
vector 5  RSUExampleScenario.node[0].veinsmobility  posy  ETV
vector 6  RSUExampleScenario.node[0].veinsmobility  speed  ETV
vector 11  RSUExampleScenario.node[1].veinsmobility  posx  ETV
vector 12  RSUExampleScenario.node[1].veinsmobility  posy  ETV
vector 7  RSUExampleScenario.node[0].veinsmobility  acceleration  ETV
vector 8  RSUExampleScenario.node[0].veinsmobility  co2emission  ETV
vector 13  RSUExampleScenario.node[1].veinsmobility  speed  ETV
vector 18  RSUExampleScenario.node[2].veinsmobility  posx  ETV
vector 19  RSUExampleScenario.node[2].veinsmobility  posy  ETV
vector 14  RSUExampleScenario.node[1].veinsmobility  acceleration  ETV
vector 15  RSUExampleScenario.node[1].veinsmobility  co2emission  ETV
vector 20  RSUExampleScenario.node[2].veinsmobility  speed  ETV
vector 25  RSUExampleScenario.node[3].veinsmobility  posx  ETV
vector 26  RSUExampleScenario.node[3].veinsmobility  posy  ETV
vector 21  RSUExampleScenario.node[2].veinsmobility  acceleration  ETV
vector 22  RSUExampleScenario.node[2].veinsmobility  co2emission  ETV
vector 32  RSUExampleScenario.node[4].veinsmobility  posx  ETV
vector 33  RSUExampleScenario.node[4].veinsmobility  posy  ETV
vector 27  RSUExampleScenario.node[3].veinsmobility  speed  ETV
vector 28  RSUExampleScenario.node[3].veinsmobility  acceleration  ETV
vector 29  RSUExampleScenario.node[3].veinsmobility  co2emission  ETV
vector 34  RSUExampleScenario.node[4].veinsmobility  speed  ETV
vector 39  RSUExampleScenario.node[5].veinsmobility  posx  ETV
vector 40  RSUExampleScenario.node[5].veinsmobility  posy  ETV
vector 35  RSUExampleScenario.node[4].veinsmobility  acceleration  ETV
vector 36  RSUExampleScenario.node[4].veinsmobility  co2emission  ETV
vector 41  RSUExampleScenario.node[5].veinsmobility  speed  ETV
vector 46  RSUExampleScenario.node[6].veinsmobility  posx  ETV
vector 47  RSUExampleScenario.node[6].veinsmobility  posy  ETV
vector 42  RSUExampleScenario.node[5].veinsmobility  acceleration  ETV
vector 43  RSUExampleScenario.node[5].veinsmobility  co2emission  ETV
vector 48  RSUExampleScenario.node[6].veinsmobility  speed  ETV
vector 53  RSUExampleScenario.node[7].veinsmobility  posx  ETV
vector 54  RSUExampleScenario.node[7].veinsmobility  posy  ETV
vector 49  RSUExampleScenario.node[6].veinsmobility  acceleration  ETV
vector 50  RSUExampleScenario.node[6].veinsmobility  co2emission  ETV
vector 55  RSUExampleScenario.node[7].veinsmobility  speed  ETV
vector 60  RSUExampleScenario.node[8].veinsmobility  posx  ETV
vector 61  RSUExampleScenario.node[8].veinsmobility  posy  ETV
vector 56  RSUExampleScenario.node[7].veinsmobility  acceleration  ETV
vector 57  RSUExampleScenario.node[7].veinsmobility  co2emission  ETV
vector 67  RSUExampleScenario.node[9].veinsmobility  posx  ETV
vector 68  RSUExampleScenario.node[9].veinsmobility  posy  ETV
vector 62  RSUExampleScenario.node[8].veinsmobility  speed  ETV
vector 63  RSUExampleScenario.node[8].veinsmobility  acceleration  ETV
vector 64  RSUExampleScenario.node[8].veinsmobility  co2emission  ETV
vector 69  RSUExampleScenario.node[9].veinsmobility  speed  ETV
vector 74  RSUExampleScenario.node[10].veinsmobility  posx  ETV
vector 75  RSUExampleScenario.node[10].veinsmobility  posy  ETV
vector 70  RSUExampleScenario.node[9].veinsmobility  acceleration  ETV
vector 71  RSUExampleScenario.node[9].veinsmobility  co2emission  ETV
vector 81  RSUExampleScenario.node[11].veinsmobility  posx  ETV
vector 82  RSUExampleScenario.node[11].veinsmobility  posy  ETV
vector 76  RSUExampleScenario.node[10].veinsmobility  speed  ETV
vector 77  RSUExampleScenario.node[10].veinsmobility  acceleration  ETV
vector 78  RSUExampleScenario.node[10].veinsmobility  co2emission  ETV
vector 83  RSUExampleScenario.node[11].veinsmobility  speed  ETV
vector 84  RSUExampleScenario.node[11].veinsmobility  acceleration  ETV
vector 85  RSUExampleScenario.node[11].veinsmobility  co2emission  ETV
vector 88  RSUExampleScenario.node[12].veinsmobility  posx  ETV
vector 89  RSUExampleScenario.node[12].veinsmobility  posy  ETV
vector 90  RSUExampleScenario.node[12].veinsmobility  speed  ETV
vector 95  RSUExampleScenario.node[13].veinsmobility  posx  ETV
vector 96  RSUExampleScenario.node[13].veinsmobility  posy  ETV
vector 91  RSUExampleScenario.node[12].veinsmobility  acceleration  ETV
vector 92  RSUExampleScenario.node[12].veinsmobility  co2emission  ETV
vector 97  RSUExampleScenario.node[13].veinsmobility  speed  ETV
vector 102  RSUExampleScenario.node[14].veinsmobility  posx  ETV
vector 103  RSUExampleScenario.node[14].veinsmobility  posy  ETV
vector 98  RSUExampleScenario.node[13].veinsmobility  acceleration  ETV
vector 99  RSUExampleScenario.node[13].veinsmobility  co2emission  ETV
vector 109  RSUExampleScenario.node[15].veinsmobility  posx  ETV
vector 110  RSUExampleScenario.node[15].veinsmobility  posy  ETV
vector 104  RSUExampleScenario.node[14].veinsmobility  speed  ETV
vector 105  RSUExampleScenario.node[14].veinsmobility  acceleration  ETV
vector 106  RSUExampleScenario.node[14].veinsmobility  co2emission  ETV
vector 111  RSUExampleScenario.node[15].veinsmobility  speed  ETV
vector 116  RSUExampleScenario.node[16].veinsmobility  posx  ETV
vector 117  RSUExampleScenario.node[16].veinsmobility  posy  ETV
vector 112  RSUExampleScenario.node[15].veinsmobility  acceleration  ETV
vector 113  RSUExampleScenario.node[15].veinsmobility  co2emission  ETV
vector 123  RSUExampleScenario.node[17].veinsmobility  posx  ETV
vector 124  RSUExampleScenario.node[17].veinsmobility  posy  ETV
vector 118  RSUExampleScenario.node[16].veinsmobility  speed  ETV
vector 119  RSUExampleScenario.node[16].veinsmobility  acceleration  ETV
vector 120  RSUExampleScenario.node[16].veinsmobility  co2emission  ETV
vector 125  RSUExampleScenario.node[17].veinsmobility  speed  ETV
vector 130  RSUExampleScenario.node[18].veinsmobility  posx  ETV
vector 131  RSUExampleScenario.node[18].veinsmobility  posy  ETV
vector 126  RSUExampleScenario.node[17].veinsmobility  acceleration  ETV
vector 127  RSUExampleScenario.node[17].veinsmobility  co2emission  ETV
vector 137  RSUExampleScenario.node[19].veinsmobility  posx  ETV
vector 138  RSUExampleScenario.node[19].veinsmobility  posy  ETV
vector 132  RSUExampleScenario.node[18].veinsmobility  speed  ETV
vector 133  RSUExampleScenario.node[18].veinsmobility  acceleration  ETV
vector 134  RSUExampleScenario.node[18].veinsmobility  co2emission  ETV
vector 139  RSUExampleScenario.node[19].veinsmobility  speed  ETV
vector 144  RSUExampleScenario.node[20].veinsmobility  posx  ETV
vector 145  RSUExampleScenario.node[20].veinsmobility  posy  ETV
vector 140  RSUExampleScenario.node[19].veinsmobility  acceleration  ETV
vector 141  RSUExampleScenario.node[19].veinsmobility  co2emission  ETV
vector 151  RSUExampleScenario.node[21].veinsmobility  posx  ETV
vector 152  RSUExampleScenario.node[21].veinsmobility  posy  ETV
vector 146  RSUExampleScenario.node[20].veinsmobility  speed  ETV
vector 147  RSUExampleScenario.node[20].veinsmobility  acceleration  ETV
vector 148  RSUExampleScenario.node[20].veinsmobility  co2emission  ETV
vector 153  RSUExampleScenario.node[21].veinsmobility  speed  ETV
vector 158  RSUExampleScenario.node[22].veinsmobility  posx  ETV
vector 159  RSUExampleScenario.node[22].veinsmobility  posy  ETV
vector 154  RSUExampleScenario.node[21].veinsmobility  acceleration  ETV
vector 155  RSUExampleScenario.node[21].veinsmobility  co2emission  ETV
vector 160  RSUExampleScenario.node[22].veinsmobility  speed  ETV
vector 161  RSUExampleScenario.node[22].veinsmobility  acceleration  ETV
vector 162  RSUExampleScenario.node[22].veinsmobility  co2emission  ETV
vector 165  RSUExampleScenario.node[23].veinsmobility  posx  ETV
vector 166  RSUExampleScenario.node[23].veinsmobility  posy  ETV
vector 167  RSUExampleScenario.node[23].veinsmobility  speed  ETV
vector 172  RSUExampleScenario.node[24].veinsmobility  posx  ETV
vector 173  RSUExampleScenario.node[24].veinsmobility  posy  ETV
vector 168  RSUExampleScenario.node[23].veinsmobility  acceleration  ETV
vector 169  RSUExampleScenario.node[23].veinsmobility  co2emission  ETV
vector 174  RSUExampleScenario.node[24].veinsmobility  speed  ETV
vector 179  RSUExampleScenario.node[25].veinsmobility  posx  ETV
vector 180  RSUExampleScenario.node[25].veinsmobility  posy  ETV
vector 175  RSUExampleScenario.node[24].veinsmobility  acceleration  ETV
vector 176  RSUExampleScenario.node[24].veinsmobility  co2emission  ETV
vector 181  RSUExampleScenario.node[25].veinsmobility  speed  ETV
vector 186  RSUExampleScenario.node[26].veinsmobility  posx  ETV
vector 187  RSUExampleScenario.node[26].veinsmobility  posy  ETV
vector 182  RSUExampleScenario.node[25].veinsmobility  acceleration  ETV
vector 183  RSUExampleScenario.node[25].veinsmobility  co2emission  ETV
vector 193  RSUExampleScenario.node[27].veinsmobility  posx  ETV
vector 194  RSUExampleScenario.node[27].veinsmobility  posy  ETV
vector 188  RSUExampleScenario.node[26].veinsmobility  speed  ETV
vector 189  RSUExampleScenario.node[26].veinsmobility  acceleration  ETV
vector 190  RSUExampleScenario.node[26].veinsmobility  co2emission  ETV
vector 195  RSUExampleScenario.node[27].veinsmobility  speed  ETV
vector 200  RSUExampleScenario.node[28].veinsmobility  posx  ETV
vector 201  RSUExampleScenario.node[28].veinsmobility  posy  ETV
vector 196  RSUExampleScenario.node[27].veinsmobility  acceleration  ETV
vector 197  RSUExampleScenario.node[27].veinsmobility  co2emission  ETV
vector 202  RSUExampleScenario.node[28].veinsmobility  speed  ETV
vector 207  RSUExampleScenario.node[29].veinsmobility  posx  ETV
vector 208  RSUExampleScenario.node[29].veinsmobility  posy  ETV
vector 203  RSUExampleScenario.node[28].veinsmobility  acceleration  ETV
vector 204  RSUExampleScenario.node[28].veinsmobility  co2emission  ETV
vector 209  RSUExampleScenario.node[29].veinsmobility  speed  ETV
vector 214  RSUExampleScenario.node[30].veinsmobility  posx  ETV
vector 215  RSUExampleScenario.node[30].veinsmobility  posy  ETV
vector 210  RSUExampleScenario.node[29].veinsmobility  acceleration  ETV
vector 211  RSUExampleScenario.node[29].veinsmobility  co2emission  ETV
vector 221  RSUExampleScenario.node[31].veinsmobility  posx  ETV
vector 222  RSUExampleScenario.node[31].veinsmobility  posy  ETV
vector 216  RSUExampleScenario.node[30].veinsmobility  speed  ETV
vector 217  RSUExampleScenario.node[30].veinsmobility  acceleration  ETV
vector 218  RSUExampleScenario.node[30].veinsmobility  co2emission  ETV
vector 223  RSUExampleScenario.node[31].veinsmobility  speed  ETV
vector 228  RSUExampleScenario.node[32].veinsmobility  posx  ETV
vector 229  RSUExampleScenario.node[32].veinsmobility  posy  ETV
vector 224  RSUExampleScenario.node[31].veinsmobility  acceleration  ETV
vector 225  RSUExampleScenario.node[31].veinsmobility  co2emission  ETV
vector 230  RSUExampleScenario.node[32].veinsmobility  speed  ETV
vector 235  RSUExampleScenario.node[33].veinsmobility  posx  ETV
vector 236  RSUExampleScenario.node[33].veinsmobility  posy  ETV
vector 231  RSUExampleScenario.node[32].veinsmobility  acceleration  ETV
vector 232  RSUExampleScenario.node[32].veinsmobility  co2emission  ETV
vector 237  RSUExampleScenario.node[33].veinsmobility  speed  ETV
vector 242  RSUExampleScenario.node[34].veinsmobility  posx  ETV
vector 243  RSUExampleScenario.node[34].veinsmobility  posy  ETV
vector 238  RSUExampleScenario.node[33].veinsmobility  acceleration  ETV
vector 239  RSUExampleScenario.node[33].veinsmobility  co2emission  ETV
vector 244  RSUExampleScenario.node[34].veinsmobility  speed  ETV
vector 249  RSUExampleScenario.node[35].veinsmobility  posx  ETV
vector 250  RSUExampleScenario.node[35].veinsmobility  posy  ETV
vector 245  RSUExampleScenario.node[34].veinsmobility  acceleration  ETV
vector 246  RSUExampleScenario.node[34].veinsmobility  co2emission  ETV
vector 251  RSUExampleScenario.node[35].veinsmobility  speed  ETV
vector 256  RSUExampleScenario.node[36].veinsmobility  posx  ETV
vector 257  RSUExampleScenario.node[36].veinsmobility  posy  ETV
vector 252  RSUExampleScenario.node[35].veinsmobility  acceleration  ETV
vector 253  RSUExampleScenario.node[35].veinsmobility  co2emission  ETV
vector 258  RSUExampleScenario.node[36].veinsmobility  speed  ETV
vector 263  RSUExampleScenario.node[37].veinsmobility  posx  ETV
vector 264  RSUExampleScenario.node[37].veinsmobility  posy  ETV
vector 259  RSUExampleScenario.node[36].veinsmobility  acceleration  ETV
vector 260  RSUExampleScenario.node[36].veinsmobility  co2emission  ETV
vector 265  RSUExampleScenario.node[37].veinsmobility  speed  ETV
vector 270  RSUExampleScenario.node[38].veinsmobility  posx  ETV
vector 271  RSUExampleScenario.node[38].veinsmobility  posy  ETV
vector 266  RSUExampleScenario.node[37].veinsmobility  acceleration  ETV
vector 267  RSUExampleScenario.node[37].veinsmobility  co2emission  ETV
vector 272  RSUExampleScenario.node[38].veinsmobility  speed  ETV
vector 277  RSUExampleScenario.node[39].veinsmobility  posx  ETV
vector 278  RSUExampleScenario.node[39].veinsmobility  posy  ETV
vector 273  RSUExampleScenario.node[38].veinsmobility  acceleration  ETV
vector 274  RSUExampleScenario.node[38].veinsmobility  co2emission  ETV
vector 279  RSUExampleScenario.node[39].veinsmobility  speed  ETV
vector 284  RSUExampleScenario.node[40].veinsmobility  posx  ETV
vector 285  RSUExampleScenario.node[40].veinsmobility  posy  ETV
vector 280  RSUExampleScenario.node[39].veinsmobility  acceleration  ETV
vector 281  RSUExampleScenario.node[39].veinsmobility  co2emission  ETV
vector 286  RSUExampleScenario.node[40].veinsmobility  speed  ETV
vector 291  RSUExampleScenario.node[41].veinsmobility  posx  ETV
vector 292  RSUExampleScenario.node[41].veinsmobility  posy  ETV
vector 287  RSUExampleScenario.node[40].veinsmobility  acceleration  ETV
vector 288  RSUExampleScenario.node[40].veinsmobility  co2emission  ETV
vector 293  RSUExampleScenario.node[41].veinsmobility  speed  ETV
vector 298  RSUExampleScenario.node[42].veinsmobility  posx  ETV
vector 299  RSUExampleScenario.node[42].veinsmobility  posy  ETV
vector 294  RSUExampleScenario.node[41].veinsmobility  acceleration  ETV
vector 295  RSUExampleScenario.node[41].veinsmobility  co2emission  ETV
vector 300  RSUExampleScenario.node[42].veinsmobility  speed  ETV
vector 305  RSUExampleScenario.node[43].veinsmobility  posx  ETV
vector 306  RSUExampleScenario.node[43].veinsmobility  posy  ETV
vector 301  RSUExampleScenario.node[42].veinsmobility  acceleration  ETV
vector 302  RSUExampleScenario.node[42].veinsmobility  co2emission  ETV
vector 307  RSUExampleScenario.node[43].veinsmobility  speed  ETV
vector 308  RSUExampleScenario.node[43].veinsmobility  acceleration  ETV
vector 309  RSUExampleScenario.node[43].veinsmobility  co2emission  ETV
vector 312  RSUExampleScenario.node[44].veinsmobility  posx  ETV
vector 313  RSUExampleScenario.node[44].veinsmobility  posy  ETV
vector 314  RSUExampleScenario.node[44].veinsmobility  speed  ETV
vector 315  RSUExampleScenario.node[44].veinsmobility  acceleration  ETV
vector 316  RSUExampleScenario.node[44].veinsmobility  co2emission  ETV
vector 319  RSUExampleScenario.node[45].veinsmobility  posx  ETV
vector 320  RSUExampleScenario.node[45].veinsmobility  posy  ETV
vector 321  RSUExampleScenario.node[45].veinsmobility  speed  ETV
vector 326  RSUExampleScenario.node[46].veinsmobility  posx  ETV
vector 327  RSUExampleScenario.node[46].veinsmobility  posy  ETV
vector 322  RSUExampleScenario.node[45].veinsmobility  acceleration  ETV
vector 323  RSUExampleScenario.node[45].veinsmobility  co2emission  ETV
vector 328  RSUExampleScenario.node[46].veinsmobility  speed  ETV
vector 329  RSUExampleScenario.node[46].veinsmobility  acceleration  ETV
vector 330  RSUExampleScenario.node[46].veinsmobility  co2emission  ETV
vector 333  RSUExampleScenario.node[47].veinsmobility  posx  ETV
vector 334  RSUExampleScenario.node[47].veinsmobility  posy  ETV
vector 335  RSUExampleScenario.node[47].veinsmobility  speed  ETV
vector 340  RSUExampleScenario.node[48].veinsmobility  posx  ETV
vector 341  RSUExampleScenario.node[48].veinsmobility  posy  ETV
vector 336  RSUExampleScenario.node[47].veinsmobility  acceleration  ETV
vector 337  RSUExampleScenario.node[47].veinsmobility  co2emission  ETV
vector 342  RSUExampleScenario.node[48].veinsmobility  speed  ETV
vector 347  RSUExampleScenario.node[49].veinsmobility  posx  ETV
vector 348  RSUExampleScenario.node[49].veinsmobility  posy  ETV
vector 343  RSUExampleScenario.node[48].veinsmobility  acceleration  ETV
vector 344  RSUExampleScenario.node[48].veinsmobility  co2emission  ETV
vector 349  RSUExampleScenario.node[49].veinsmobility  speed  ETV
vector 354  RSUExampleScenario.node[50].veinsmobility  posx  ETV
vector 355  RSUExampleScenario.node[50].veinsmobility  posy  ETV
vector 350  RSUExampleScenario.node[49].veinsmobility  acceleration  ETV
vector 351  RSUExampleScenario.node[49].veinsmobility  co2emission  ETV
vector 356  RSUExampleScenario.node[50].veinsmobility  speed  ETV
vector 361  RSUExampleScenario.node[51].veinsmobility  posx  ETV
vector 362  RSUExampleScenario.node[51].veinsmobility  posy  ETV
vector 357  RSUExampleScenario.node[50].veinsmobility  acceleration  ETV
vector 358  RSUExampleScenario.node[50].veinsmobility  co2emission  ETV
vector 363  RSUExampleScenario.node[51].veinsmobility  speed  ETV
vector 368  RSUExampleScenario.node[52].veinsmobility  posx  ETV
vector 369  RSUExampleScenario.node[52].veinsmobility  posy  ETV
vector 364  RSUExampleScenario.node[51].veinsmobility  acceleration  ETV
vector 365  RSUExampleScenario.node[51].veinsmobility  co2emission  ETV
vector 370  RSUExampleScenario.node[52].veinsmobility  speed  ETV
vector 371  RSUExampleScenario.node[52].veinsmobility  acceleration  ETV
vector 372  RSUExampleScenario.node[52].veinsmobility  co2emission  ETV
vector 375  RSUExampleScenario.node[53].veinsmobility  posx  ETV
vector 376  RSUExampleScenario.node[53].veinsmobility  posy  ETV
vector 377  RSUExampleScenario.node[53].veinsmobility  speed  ETV
vector 382  RSUExampleScenario.node[54].veinsmobility  posx  ETV
vector 383  RSUExampleScenario.node[54].veinsmobility  posy  ETV
vector 378  RSUExampleScenario.node[53].veinsmobility  acceleration  ETV
vector 379  RSUExampleScenario.node[53].veinsmobility  co2emission  ETV
vector 384  RSUExampleScenario.node[54].veinsmobility  speed  ETV
vector 389  RSUExampleScenario.node[55].veinsmobility  posx  ETV
vector 390  RSUExampleScenario.node[55].veinsmobility  posy  ETV
vector 385  RSUExampleScenario.node[54].veinsmobility  acceleration  ETV
vector 386  RSUExampleScenario.node[54].veinsmobility  co2emission  ETV
vector 391  RSUExampleScenario.node[55].veinsmobility  speed  ETV
vector 396  RSUExampleScenario.node[56].veinsmobility  posx  ETV
vector 397  RSUExampleScenario.node[56].veinsmobility  posy  ETV
vector 392  RSUExampleScenario.node[55].veinsmobility  acceleration  ETV
vector 393  RSUExampleScenario.node[55].veinsmobility  co2emission  ETV
vector 398  RSUExampleScenario.node[56].veinsmobility  speed  ETV
vector 403  RSUExampleScenario.node[57].veinsmobility  posx  ETV
vector 404  RSUExampleScenario.node[57].veinsmobility  posy  ETV
vector 399  RSUExampleScenario.node[56].veinsmobility  acceleration  ETV
vector 400  RSUExampleScenario.node[56].veinsmobility  co2emission  ETV
vector 405  RSUExampleScenario.node[57].veinsmobility  speed  ETV
vector 406  RSUExampleScenario.node[57].veinsmobility  acceleration  ETV
vector 407  RSUExampleScenario.node[57].veinsmobility  co2emission  ETV
vector 410  RSUExampleScenario.node[58].veinsmobility  posx  ETV
vector 411  RSUExampleScenario.node[58].veinsmobility  posy  ETV
vector 412  RSUExampleScenario.node[58].veinsmobility  speed  ETV
vector 417  RSUExampleScenario.node[59].veinsmobility  posx  ETV
vector 418  RSUExampleScenario.node[59].veinsmobility  posy  ETV
vector 413  RSUExampleScenario.node[58].veinsmobility  acceleration  ETV
vector 414  RSUExampleScenario.node[58].veinsmobility  co2emission  ETV
vector 419  RSUExampleScenario.node[59].veinsmobility  speed  ETV
vector 424  RSUExampleScenario.node[60].veinsmobility  posx  ETV
vector 425  RSUExampleScenario.node[60].veinsmobility  posy  ETV
vector 420  RSUExampleScenario.node[59].veinsmobility  acceleration  ETV
vector 421  RSUExampleScenario.node[59].veinsmobility  co2emission  ETV
vector 426  RSUExampleScenario.node[60].veinsmobility  speed  ETV
vector 427  RSUExampleScenario.node[60].veinsmobility  acceleration  ETV
vector 428  RSUExampleScenario.node[60].veinsmobility  co2emission  ETV
vector 431  RSUExampleScenario.node[61].veinsmobility  posx  ETV
vector 432  RSUExampleScenario.node[61].veinsmobility  posy  ETV
vector 433  RSUExampleScenario.node[61].veinsmobility  speed  ETV
vector 438  RSUExampleScenario.node[62].veinsmobility  posx  ETV
vector 439  RSUExampleScenario.node[62].veinsmobility  posy  ETV
vector 434  RSUExampleScenario.node[61].veinsmobility  acceleration  ETV
vector 435  RSUExampleScenario.node[61].veinsmobility  co2emission  ETV
vector 440  RSUExampleScenario.node[62].veinsmobility  speed  ETV
vector 445  RSUExampleScenario.node[63].veinsmobility  posx  ETV
vector 446  RSUExampleScenario.node[63].veinsmobility  posy  ETV
vector 441  RSUExampleScenario.node[62].veinsmobility  acceleration  ETV
vector 442  RSUExampleScenario.node[62].veinsmobility  co2emission  ETV
vector 447  RSUExampleScenario.node[63].veinsmobility  speed  ETV
vector 448  RSUExampleScenario.node[63].veinsmobility  acceleration  ETV
vector 449  RSUExampleScenario.node[63].veinsmobility  co2emission  ETV
vector 452  RSUExampleScenario.node[64].veinsmobility  posx  ETV
vector 453  RSUExampleScenario.node[64].veinsmobility  posy  ETV
vector 454  RSUExampleScenario.node[64].veinsmobility  speed  ETV
vector 459  RSUExampleScenario.node[65].veinsmobility  posx  ETV
vector 460  RSUExampleScenario.node[65].veinsmobility  posy  ETV
vector 455  RSUExampleScenario.node[64].veinsmobility  acceleration  ETV
vector 456  RSUExampleScenario.node[64].veinsmobility  co2emission  ETV
vector 461  RSUExampleScenario.node[65].veinsmobility  speed  ETV
vector 466  RSUExampleScenario.node[66].veinsmobility  posx  ETV
vector 467  RSUExampleScenario.node[66].veinsmobility  posy  ETV
vector 462  RSUExampleScenario.node[65].veinsmobility  acceleration  ETV
vector 463  RSUExampleScenario.node[65].veinsmobility  co2emission  ETV
vector 468  RSUExampleScenario.node[66].veinsmobility  speed  ETV
vector 469  RSUExampleScenario.node[66].veinsmobility  acceleration  ETV
vector 470  RSUExampleScenario.node[66].veinsmobility  co2emission  ETV
vector 473  RSUExampleScenario.node[67].veinsmobility  posx  ETV
vector 474  RSUExampleScenario.node[67].veinsmobility  posy  ETV
vector 475  RSUExampleScenario.node[67].veinsmobility  speed  ETV
vector 480  RSUExampleScenario.node[68].veinsmobility  posx  ETV
vector 481  RSUExampleScenario.node[68].veinsmobility  posy  ETV
vector 476  RSUExampleScenario.node[67].veinsmobility  acceleration  ETV
vector 477  RSUExampleScenario.node[67].veinsmobility  co2emission  ETV
vector 482  RSUExampleScenario.node[68].veinsmobility  speed  ETV
vector 487  RSUExampleScenario.node[69].veinsmobility  posx  ETV
vector 488  RSUExampleScenario.node[69].veinsmobility  posy  ETV
vector 483  RSUExampleScenario.node[68].veinsmobility  acceleration  ETV
vector 484  RSUExampleScenario.node[68].veinsmobility  co2emission  ETV
vector 489  RSUExampleScenario.node[69].veinsmobility  speed  ETV
vector 494  RSUExampleScenario.node[70].veinsmobility  posx  ETV
vector 495  RSUExampleScenario.node[70].veinsmobility  posy  ETV
vector 490  RSUExampleScenario.node[69].veinsmobility  acceleration  ETV
vector 491  RSUExampleScenario.node[69].veinsmobility  co2emission  ETV
vector 496  RSUExampleScenario.node[70].veinsmobility  speed  ETV
vector 497  RSUExampleScenario.node[70].veinsmobility  acceleration  ETV
vector 498  RSUExampleScenario.node[70].veinsmobility  co2emission  ETV
vector 501  RSUExampleScenario.node[71].veinsmobility  posx  ETV
vector 502  RSUExampleScenario.node[71].veinsmobility  posy  ETV
vector 503  RSUExampleScenario.node[71].veinsmobility  speed  ETV
vector 508  RSUExampleScenario.node[72].veinsmobility  posx  ETV
vector 509  RSUExampleScenario.node[72].veinsmobility  posy  ETV
vector 504  RSUExampleScenario.node[71].veinsmobility  acceleration  ETV
vector 505  RSUExampleScenario.node[71].veinsmobility  co2emission  ETV
vector 510  RSUExampleScenario.node[72].veinsmobility  speed  ETV
vector 515  RSUExampleScenario.node[73].veinsmobility  posx  ETV
vector 516  RSUExampleScenario.node[73].veinsmobility  posy  ETV
vector 511  RSUExampleScenario.node[72].veinsmobility  acceleration  ETV
vector 512  RSUExampleScenario.node[72].veinsmobility  co2emission  ETV
vector 517  RSUExampleScenario.node[73].veinsmobility  speed  ETV
vector 522  RSUExampleScenario.node[74].veinsmobility  posx  ETV
vector 523  RSUExampleScenario.node[74].veinsmobility  posy  ETV
vector 518  RSUExampleScenario.node[73].veinsmobility  acceleration  ETV
vector 519  RSUExampleScenario.node[73].veinsmobility  co2emission  ETV
vector 524  RSUExampleScenario.node[74].veinsmobility  speed  ETV
vector 525  RSUExampleScenario.node[74].veinsmobility  acceleration  ETV
vector 526  RSUExampleScenario.node[74].veinsmobility  co2emission  ETV
vector 529  RSUExampleScenario.node[75].veinsmobility  posx  ETV
vector 530  RSUExampleScenario.node[75].veinsmobility  posy  ETV
vector 531  RSUExampleScenario.node[75].veinsmobility  speed  ETV
vector 536  RSUExampleScenario.node[76].veinsmobility  posx  ETV
vector 537  RSUExampleScenario.node[76].veinsmobility  posy  ETV
vector 532  RSUExampleScenario.node[75].veinsmobility  acceleration  ETV
vector 533  RSUExampleScenario.node[75].veinsmobility  co2emission  ETV
vector 538  RSUExampleScenario.node[76].veinsmobility  speed  ETV
vector 543  RSUExampleScenario.node[77].veinsmobility  posx  ETV
vector 544  RSUExampleScenario.node[77].veinsmobility  posy  ETV
vector 539  RSUExampleScenario.node[76].veinsmobility  acceleration  ETV
vector 540  RSUExampleScenario.node[76].veinsmobility  co2emission  ETV
vector 545  RSUExampleScenario.node[77].veinsmobility  speed  ETV
vector 550  RSUExampleScenario.node[78].veinsmobility  posx  ETV
vector 551  RSUExampleScenario.node[78].veinsmobility  posy  ETV
vector 546  RSUExampleScenario.node[77].veinsmobility  acceleration  ETV
vector 547  RSUExampleScenario.node[77].veinsmobility  co2emission  ETV
vector 552  RSUExampleScenario.node[78].veinsmobility  speed  ETV
vector 553  RSUExampleScenario.node[78].veinsmobility  acceleration  ETV
vector 554  RSUExampleScenario.node[78].veinsmobility  co2emission  ETV
vector 557  RSUExampleScenario.node[79].veinsmobility  posx  ETV
vector 558  RSUExampleScenario.node[79].veinsmobility  posy  ETV
vector 559  RSUExampleScenario.node[79].veinsmobility  speed  ETV
vector 564  RSUExampleScenario.node[80].veinsmobility  posx  ETV
vector 565  RSUExampleScenario.node[80].veinsmobility  posy  ETV
vector 560  RSUExampleScenario.node[79].veinsmobility  acceleration  ETV
vector 561  RSUExampleScenario.node[79].veinsmobility  co2emission  ETV
vector 566  RSUExampleScenario.node[80].veinsmobility  speed  ETV
vector 567  RSUExampleScenario.node[80].veinsmobility  acceleration  ETV
vector 568  RSUExampleScenario.node[80].veinsmobility  co2emission  ETV
vector 571  RSUExampleScenario.node[81].veinsmobility  posx  ETV
vector 572  RSUExampleScenario.node[81].veinsmobility  posy  ETV
vector 573  RSUExampleScenario.node[81].veinsmobility  speed  ETV
vector 578  RSUExampleScenario.node[82].veinsmobility  posx  ETV
vector 579  RSUExampleScenario.node[82].veinsmobility  posy  ETV
vector 574  RSUExampleScenario.node[81].veinsmobility  acceleration  ETV
vector 575  RSUExampleScenario.node[81].veinsmobility  co2emission  ETV
vector 580  RSUExampleScenario.node[82].veinsmobility  speed  ETV
vector 585  RSUExampleScenario.node[83].veinsmobility  posx  ETV
vector 586  RSUExampleScenario.node[83].veinsmobility  posy  ETV
vector 581  RSUExampleScenario.node[82].veinsmobility  acceleration  ETV
vector 582  RSUExampleScenario.node[82].veinsmobility  co2emission  ETV
vector 587  RSUExampleScenario.node[83].veinsmobility  speed  ETV
vector 588  RSUExampleScenario.node[83].veinsmobility  acceleration  ETV
vector 589  RSUExampleScenario.node[83].veinsmobility  co2emission  ETV
vector 592  RSUExampleScenario.node[84].veinsmobility  posx  ETV
vector 593  RSUExampleScenario.node[84].veinsmobility  posy  ETV
vector 594  RSUExampleScenario.node[84].veinsmobility  speed  ETV
vector 599  RSUExampleScenario.node[85].veinsmobility  posx  ETV
vector 600  RSUExampleScenario.node[85].veinsmobility  posy  ETV
vector 595  RSUExampleScenario.node[84].veinsmobility  acceleration  ETV
vector 596  RSUExampleScenario.node[84].veinsmobility  co2emission  ETV
vector 601  RSUExampleScenario.node[85].veinsmobility  speed  ETV
vector 602  RSUExampleScenario.node[85].veinsmobility  acceleration  ETV
vector 603  RSUExampleScenario.node[85].veinsmobility  co2emission  ETV
vector 606  RSUExampleScenario.node[86].veinsmobility  posx  ETV
vector 607  RSUExampleScenario.node[86].veinsmobility  posy  ETV
vector 608  RSUExampleScenario.node[86].veinsmobility  speed  ETV
vector 613  RSUExampleScenario.node[87].veinsmobility  posx  ETV
vector 614  RSUExampleScenario.node[87].veinsmobility  posy  ETV
vector 609  RSUExampleScenario.node[86].veinsmobility  acceleration  ETV
vector 610  RSUExampleScenario.node[86].veinsmobility  co2emission  ETV
vector 615  RSUExampleScenario.node[87].veinsmobility  speed  ETV
vector 616  RSUExampleScenario.node[87].veinsmobility  acceleration  ETV
vector 617  RSUExampleScenario.node[87].veinsmobility  co2emission  ETV
vector 620  RSUExampleScenario.node[88].veinsmobility  posx  ETV
vector 621  RSUExampleScenario.node[88].veinsmobility  posy  ETV
vector 622  RSUExampleScenario.node[88].veinsmobility  speed  ETV
vector 627  RSUExampleScenario.node[89].veinsmobility  posx  ETV
vector 628  RSUExampleScenario.node[89].veinsmobility  posy  ETV
vector 623  RSUExampleScenario.node[88].veinsmobility  acceleration  ETV
vector 624  RSUExampleScenario.node[88].veinsmobility  co2emission  ETV
vector 629  RSUExampleScenario.node[89].veinsmobility  speed  ETV
vector 630  RSUExampleScenario.node[89].veinsmobility  acceleration  ETV
vector 631  RSUExampleScenario.node[89].veinsmobility  co2emission  ETV
vector 634  RSUExampleScenario.node[90].veinsmobility  posx  ETV
vector 635  RSUExampleScenario.node[90].veinsmobility  posy  ETV
vector 636  RSUExampleScenario.node[90].veinsmobility  speed  ETV
vector 641  RSUExampleScenario.node[91].veinsmobility  posx  ETV
vector 642  RSUExampleScenario.node[91].veinsmobility  posy  ETV
vector 637  RSUExampleScenario.node[90].veinsmobility  acceleration  ETV
vector 638  RSUExampleScenario.node[90].veinsmobility  co2emission  ETV
vector 643  RSUExampleScenario.node[91].veinsmobility  speed  ETV
vector 648  RSUExampleScenario.node[92].veinsmobility  posx  ETV
vector 649  RSUExampleScenario.node[92].veinsmobility  posy  ETV
vector 644  RSUExampleScenario.node[91].veinsmobility  acceleration  ETV
vector 645  RSUExampleScenario.node[91].veinsmobility  co2emission  ETV
vector 650  RSUExampleScenario.node[92].veinsmobility  speed  ETV
vector 651  RSUExampleScenario.node[92].veinsmobility  acceleration  ETV
vector 652  RSUExampleScenario.node[92].veinsmobility  co2emission  ETV
vector 655  RSUExampleScenario.node[93].veinsmobility  posx  ETV
vector 656  RSUExampleScenario.node[93].veinsmobility  posy  ETV
vector 657  RSUExampleScenario.node[93].veinsmobility  speed  ETV
vector 658  RSUExampleScenario.node[93].veinsmobility  acceleration  ETV
vector 659  RSUExampleScenario.node[93].veinsmobility  co2emission  ETV
vector 662  RSUExampleScenario.node[94].veinsmobility  posx  ETV
vector 663  RSUExampleScenario.node[94].veinsmobility  posy  ETV
vector 664  RSUExampleScenario.node[94].veinsmobility  speed  ETV
vector 665  RSUExampleScenario.node[94].veinsmobility  acceleration  ETV
vector 666  RSUExampleScenario.node[94].veinsmobility  co2emission  ETV
vector 669  RSUExampleScenario.node[95].veinsmobility  posx  ETV
vector 670  RSUExampleScenario.node[95].veinsmobility  posy  ETV
vector 671  RSUExampleScenario.node[95].veinsmobility  speed  ETV
vector 672  RSUExampleScenario.node[95].veinsmobility  acceleration  ETV
vector 673  RSUExampleScenario.node[95].veinsmobility  co2emission  ETV
vector 676  RSUExampleScenario.node[96].veinsmobility  posx  ETV
vector 677  RSUExampleScenario.node[96].veinsmobility  posy  ETV
vector 678  RSUExampleScenario.node[96].veinsmobility  speed  ETV
vector 679  RSUExampleScenario.node[96].veinsmobility  acceleration  ETV
vector 680  RSUExampleScenario.node[96].veinsmobility  co2emission  ETV
vector 683  RSUExampleScenario.node[97].veinsmobility  posx  ETV
vector 684  RSUExampleScenario.node[97].veinsmobility  posy  ETV
vector 685  RSUExampleScenario.node[97].veinsmobility  speed  ETV
vector 686  RSUExampleScenario.node[97].veinsmobility  acceleration  ETV
vector 687  RSUExampleScenario.node[97].veinsmobility  co2emission  ETV
vector 690  RSUExampleScenario.node[98].veinsmobility  posx  ETV
vector 691  RSUExampleScenario.node[98].veinsmobility  posy  ETV
vector 692  RSUExampleScenario.node[98].veinsmobility  speed  ETV
vector 693  RSUExampleScenario.node[98].veinsmobility  acceleration  ETV
vector 694  RSUExampleScenario.node[98].veinsmobility  co2emission  ETV
vector 697  RSUExampleScenario.node[99].veinsmobility  posx  ETV
vector 698  RSUExampleScenario.node[99].veinsmobility  posy  ETV
vector 699  RSUExampleScenario.node[99].veinsmobility  speed  ETV
vector 700  RSUExampleScenario.node[99].veinsmobility  acceleration  ETV
vector 701  RSUExampleScenario.node[99].veinsmobility  co2emission  ETV
vector 704  RSUExampleScenario.node[100].veinsmobility  posx  ETV
vector 705  RSUExampleScenario.node[100].veinsmobility  posy  ETV
vector 706  RSUExampleScenario.node[100].veinsmobility  speed  ETV
vector 711  RSUExampleScenario.node[101].veinsmobility  posx  ETV
vector 712  RSUExampleScenario.node[101].veinsmobility  posy  ETV
vector 707  RSUExampleScenario.node[100].veinsmobility  acceleration  ETV
vector 708  RSUExampleScenario.node[100].veinsmobility  co2emission  ETV
vector 713  RSUExampleScenario.node[101].veinsmobility  speed  ETV
vector 718  RSUExampleScenario.node[102].veinsmobility  posx  ETV
vector 719  RSUExampleScenario.node[102].veinsmobility  posy  ETV
vector 714  RSUExampleScenario.node[101].veinsmobility  acceleration  ETV
vector 715  RSUExampleScenario.node[101].veinsmobility  co2emission  ETV
vector 720  RSUExampleScenario.node[102].veinsmobility  speed  ETV
vector 725  RSUExampleScenario.node[103].veinsmobility  posx  ETV
vector 726  RSUExampleScenario.node[103].veinsmobility  posy  ETV
vector 721  RSUExampleScenario.node[102].veinsmobility  acceleration  ETV
vector 722  RSUExampleScenario.node[102].veinsmobility  co2emission  ETV
vector 727  RSUExampleScenario.node[103].veinsmobility  speed  ETV
vector 732  RSUExampleScenario.node[104].veinsmobility  posx  ETV
vector 733  RSUExampleScenario.node[104].veinsmobility  posy  ETV
vector 728  RSUExampleScenario.node[103].veinsmobility  acceleration  ETV
vector 729  RSUExampleScenario.node[103].veinsmobility  co2emission  ETV
vector 734  RSUExampleScenario.node[104].veinsmobility  speed  ETV
vector 739  RSUExampleScenario.node[105].veinsmobility  posx  ETV
vector 740  RSUExampleScenario.node[105].veinsmobility  posy  ETV
vector 735  RSUExampleScenario.node[104].veinsmobility  acceleration  ETV
vector 736  RSUExampleScenario.node[104].veinsmobility  co2emission  ETV
vector 741  RSUExampleScenario.node[105].veinsmobility  speed  ETV
vector 746  RSUExampleScenario.node[106].veinsmobility  posx  ETV
vector 747  RSUExampleScenario.node[106].veinsmobility  posy  ETV
vector 742  RSUExampleScenario.node[105].veinsmobility  acceleration  ETV
vector 743  RSUExampleScenario.node[105].veinsmobility  co2emission  ETV
vector 748  RSUExampleScenario.node[106].veinsmobility  speed  ETV
vector 749  RSUExampleScenario.node[106].veinsmobility  acceleration  ETV
vector 750  RSUExampleScenario.node[106].veinsmobility  co2emission  ETV
vector 753  RSUExampleScenario.node[107].veinsmobility  posx  ETV
vector 754  RSUExampleScenario.node[107].veinsmobility  posy  ETV
vector 755  RSUExampleScenario.node[107].veinsmobility  speed  ETV
vector 760  RSUExampleScenario.node[108].veinsmobility  posx  ETV
vector 761  RSUExampleScenario.node[108].veinsmobility  posy  ETV
vector 756  RSUExampleScenario.node[107].veinsmobility  acceleration  ETV
vector 757  RSUExampleScenario.node[107].veinsmobility  co2emission  ETV
vector 762  RSUExampleScenario.node[108].veinsmobility  speed  ETV
vector 767  RSUExampleScenario.node[109].veinsmobility  posx  ETV
vector 768  RSUExampleScenario.node[109].veinsmobility  posy  ETV
vector 763  RSUExampleScenario.node[108].veinsmobility  acceleration  ETV
vector 764  RSUExampleScenario.node[108].veinsmobility  co2emission  ETV
vector 769  RSUExampleScenario.node[109].veinsmobility  speed  ETV
vector 774  RSUExampleScenario.node[110].veinsmobility  posx  ETV
vector 775  RSUExampleScenario.node[110].veinsmobility  posy  ETV
vector 770  RSUExampleScenario.node[109].veinsmobility  acceleration  ETV
vector 771  RSUExampleScenario.node[109].veinsmobility  co2emission  ETV
vector 776  RSUExampleScenario.node[110].veinsmobility  speed  ETV
vector 781  RSUExampleScenario.node[111].veinsmobility  posx  ETV
vector 782  RSUExampleScenario.node[111].veinsmobility  posy  ETV
vector 777  RSUExampleScenario.node[110].veinsmobility  acceleration  ETV
vector 778  RSUExampleScenario.node[110].veinsmobility  co2emission  ETV
vector 783  RSUExampleScenario.node[111].veinsmobility  speed  ETV
vector 784  RSUExampleScenario.node[111].veinsmobility  acceleration  ETV
vector 785  RSUExampleScenario.node[111].veinsmobility  co2emission  ETV
vector 788  RSUExampleScenario.node[112].veinsmobility  posx  ETV
vector 789  RSUExampleScenario.node[112].veinsmobility  posy  ETV
vector 790  RSUExampleScenario.node[112].veinsmobility  speed  ETV
vector 795  RSUExampleScenario.node[113].veinsmobility  posx  ETV
vector 796  RSUExampleScenario.node[113].veinsmobility  posy  ETV
vector 791  RSUExampleScenario.node[112].veinsmobility  acceleration  ETV
vector 792  RSUExampleScenario.node[112].veinsmobility  co2emission  ETV
vector 797  RSUExampleScenario.node[113].veinsmobility  speed  ETV
vector 802  RSUExampleScenario.node[114].veinsmobility  posx  ETV
vector 803  RSUExampleScenario.node[114].veinsmobility  posy  ETV
vector 798  RSUExampleScenario.node[113].veinsmobility  acceleration  ETV
vector 799  RSUExampleScenario.node[113].veinsmobility  co2emission  ETV
vector 804  RSUExampleScenario.node[114].veinsmobility  speed  ETV
vector 805  RSUExampleScenario.node[114].veinsmobility  acceleration  ETV
vector 806  RSUExampleScenario.node[114].veinsmobility  co2emission  ETV
vector 809  RSUExampleScenario.node[115].veinsmobility  posx  ETV
vector 810  RSUExampleScenario.node[115].veinsmobility  posy  ETV
vector 811  RSUExampleScenario.node[115].veinsmobility  speed  ETV
vector 816  RSUExampleScenario.node[116].veinsmobility  posx  ETV
vector 817  RSUExampleScenario.node[116].veinsmobility  posy  ETV
vector 812  RSUExampleScenario.node[115].veinsmobility  acceleration  ETV
vector 813  RSUExampleScenario.node[115].veinsmobility  co2emission  ETV
vector 818  RSUExampleScenario.node[116].veinsmobility  speed  ETV
vector 823  RSUExampleScenario.node[117].veinsmobility  posx  ETV
vector 824  RSUExampleScenario.node[117].veinsmobility  posy  ETV
vector 819  RSUExampleScenario.node[116].veinsmobility  acceleration  ETV
vector 820  RSUExampleScenario.node[116].veinsmobility  co2emission  ETV
vector 825  RSUExampleScenario.node[117].veinsmobility  speed  ETV
vector 826  RSUExampleScenario.node[117].veinsmobility  acceleration  ETV
vector 827  RSUExampleScenario.node[117].veinsmobility  co2emission  ETV
vector 830  RSUExampleScenario.node[118].veinsmobility  posx  ETV
vector 831  RSUExampleScenario.node[118].veinsmobility  posy  ETV
vector 832  RSUExampleScenario.node[118].veinsmobility  speed  ETV
vector 833  RSUExampleScenario.node[118].veinsmobility  acceleration  ETV
vector 834  RSUExampleScenario.node[118].veinsmobility  co2emission  ETV
vector 837  RSUExampleScenario.node[119].veinsmobility  posx  ETV
vector 838  RSUExampleScenario.node[119].veinsmobility  posy  ETV
vector 839  RSUExampleScenario.node[119].veinsmobility  speed  ETV
vector 844  RSUExampleScenario.node[120].veinsmobility  posx  ETV
vector 845  RSUExampleScenario.node[120].veinsmobility  posy  ETV
vector 840  RSUExampleScenario.node[119].veinsmobility  acceleration  ETV
vector 841  RSUExampleScenario.node[119].veinsmobility  co2emission  ETV
vector 846  RSUExampleScenario.node[120].veinsmobility  speed  ETV
vector 847  RSUExampleScenario.node[120].veinsmobility  acceleration  ETV
vector 848  RSUExampleScenario.node[120].veinsmobility  co2emission  ETV
vector 851  RSUExampleScenario.node[121].veinsmobility  posx  ETV
vector 852  RSUExampleScenario.node[121].veinsmobility  posy  ETV
vector 853  RSUExampleScenario.node[121].veinsmobility  speed  ETV
vector 854  RSUExampleScenario.node[121].veinsmobility  acceleration  ETV
vector 855  RSUExampleScenario.node[121].veinsmobility  co2emission  ETV
vector 858  RSUExampleScenario.node[122].veinsmobility  posx  ETV
vector 859  RSUExampleScenario.node[122].veinsmobility  posy  ETV
vector 860  RSUExampleScenario.node[122].veinsmobility  speed  ETV
vector 865  RSUExampleScenario.node[123].veinsmobility  posx  ETV
vector 866  RSUExampleScenario.node[123].veinsmobility  posy  ETV
vector 861  RSUExampleScenario.node[122].veinsmobility  acceleration  ETV
vector 862  RSUExampleScenario.node[122].veinsmobility  co2emission  ETV
vector 867  RSUExampleScenario.node[123].veinsmobility  speed  ETV
vector 868  RSUExampleScenario.node[123].veinsmobility  acceleration  ETV
vector 869  RSUExampleScenario.node[123].veinsmobility  co2emission  ETV
vector 872  RSUExampleScenario.node[124].veinsmobility  posx  ETV
vector 873  RSUExampleScenario.node[124].veinsmobility  posy  ETV
vector 874  RSUExampleScenario.node[124].veinsmobility  speed  ETV
vector 875  RSUExampleScenario.node[124].veinsmobility  acceleration  ETV
vector 876  RSUExampleScenario.node[124].veinsmobility  co2emission  ETV
vector 879  RSUExampleScenario.node[125].veinsmobility  posx  ETV
vector 880  RSUExampleScenario.node[125].veinsmobility  posy  ETV
vector 881  RSUExampleScenario.node[125].veinsmobility  speed  ETV
vector 882  RSUExampleScenario.node[125].veinsmobility  acceleration  ETV
vector 883  RSUExampleScenario.node[125].veinsmobility  co2emission  ETV
vector 886  RSUExampleScenario.node[126].veinsmobility  posx  ETV
vector 887  RSUExampleScenario.node[126].veinsmobility  posy  ETV
vector 888  RSUExampleScenario.node[126].veinsmobility  speed  ETV
vector 889  RSUExampleScenario.node[126].veinsmobility  acceleration  ETV
vector 890  RSUExampleScenario.node[126].veinsmobility  co2emission  ETV
vector 893  RSUExampleScenario.node[127].veinsmobility  posx  ETV
vector 894  RSUExampleScenario.node[127].veinsmobility  posy  ETV
vector 895  RSUExampleScenario.node[127].veinsmobility  speed  ETV
vector 896  RSUExampleScenario.node[127].veinsmobility  acceleration  ETV
vector 897  RSUExampleScenario.node[127].veinsmobility  co2emission  ETV
vector 900  RSUExampleScenario.node[128].veinsmobility  posx  ETV
vector 901  RSUExampleScenario.node[128].veinsmobility  posy  ETV
vector 902  RSUExampleScenario.node[128].veinsmobility  speed  ETV
vector 907  RSUExampleScenario.node[129].veinsmobility  posx  ETV
vector 908  RSUExampleScenario.node[129].veinsmobility  posy  ETV
vector 903  RSUExampleScenario.node[128].veinsmobility  acceleration  ETV
vector 904  RSUExampleScenario.node[128].veinsmobility  co2emission  ETV
vector 909  RSUExampleScenario.node[129].veinsmobility  speed  ETV
vector 910  RSUExampleScenario.node[129].veinsmobility  acceleration  ETV
vector 911  RSUExampleScenario.node[129].veinsmobility  co2emission  ETV
vector 914  RSUExampleScenario.node[130].veinsmobility  posx  ETV
vector 915  RSUExampleScenario.node[130].veinsmobility  posy  ETV
vector 916  RSUExampleScenario.node[130].veinsmobility  speed  ETV
vector 917  RSUExampleScenario.node[130].veinsmobility  acceleration  ETV
vector 918  RSUExampleScenario.node[130].veinsmobility  co2emission  ETV
vector 921  RSUExampleScenario.node[131].veinsmobility  posx  ETV
vector 922  RSUExampleScenario.node[131].veinsmobility  posy  ETV
vector 923  RSUExampleScenario.node[131].veinsmobility  speed  ETV
vector 928  RSUExampleScenario.node[132].veinsmobility  posx  ETV
vector 929  RSUExampleScenario.node[132].veinsmobility  posy  ETV
vector 924  RSUExampleScenario.node[131].veinsmobility  acceleration  ETV
vector 925  RSUExampleScenario.node[131].veinsmobility  co2emission  ETV
vector 930  RSUExampleScenario.node[132].veinsmobility  speed  ETV
vector 931  RSUExampleScenario.node[132].veinsmobility  acceleration  ETV
vector 932  RSUExampleScenario.node[132].veinsmobility  co2emission  ETV
vector 935  RSUExampleScenario.node[133].veinsmobility  posx  ETV
vector 936  RSUExampleScenario.node[133].veinsmobility  posy  ETV
vector 937  RSUExampleScenario.node[133].veinsmobility  speed  ETV
vector 938  RSUExampleScenario.node[133].veinsmobility  acceleration  ETV
vector 939  RSUExampleScenario.node[133].veinsmobility  co2emission  ETV
vector 942  RSUExampleScenario.node[134].veinsmobility  posx  ETV
vector 943  RSUExampleScenario.node[134].veinsmobility  posy  ETV
vector 944  RSUExampleScenario.node[134].veinsmobility  speed  ETV
vector 945  RSUExampleScenario.node[134].veinsmobility  acceleration  ETV
vector 946  RSUExampleScenario.node[134].veinsmobility  co2emission  ETV
vector 949  RSUExampleScenario.node[135].veinsmobility  posx  ETV
vector 950  RSUExampleScenario.node[135].veinsmobility  posy  ETV
vector 951  RSUExampleScenario.node[135].veinsmobility  speed  ETV
vector 952  RSUExampleScenario.node[135].veinsmobility  acceleration  ETV
vector 953  RSUExampleScenario.node[135].veinsmobility  co2emission  ETV
vector 956  RSUExampleScenario.node[136].veinsmobility  posx  ETV
vector 957  RSUExampleScenario.node[136].veinsmobility  posy  ETV
vector 958  RSUExampleScenario.node[136].veinsmobility  speed  ETV
vector 959  RSUExampleScenario.node[136].veinsmobility  acceleration  ETV
vector 960  RSUExampleScenario.node[136].veinsmobility  co2emission  ETV
vector 963  RSUExampleScenario.node[137].veinsmobility  posx  ETV
vector 964  RSUExampleScenario.node[137].veinsmobility  posy  ETV
vector 965  RSUExampleScenario.node[137].veinsmobility  speed  ETV
vector 966  RSUExampleScenario.node[137].veinsmobility  acceleration  ETV
vector 967  RSUExampleScenario.node[137].veinsmobility  co2emission  ETV
vector 970  RSUExampleScenario.node[138].veinsmobility  posx  ETV
vector 971  RSUExampleScenario.node[138].veinsmobility  posy  ETV
vector 972  RSUExampleScenario.node[138].veinsmobility  speed  ETV
vector 973  RSUExampleScenario.node[138].veinsmobility  acceleration  ETV
vector 974  RSUExampleScenario.node[138].veinsmobility  co2emission  ETV
vector 977  RSUExampleScenario.node[139].veinsmobility  posx  ETV
vector 978  RSUExampleScenario.node[139].veinsmobility  posy  ETV
vector 979  RSUExampleScenario.node[139].veinsmobility  speed  ETV
vector 980  RSUExampleScenario.node[139].veinsmobility  acceleration  ETV
vector 981  RSUExampleScenario.node[139].veinsmobility  co2emission  ETV
8	50881 7252 4 38892 3 329 327 0.973 33.37627103736 946.58677122452 8347.5764838924
7	58133 7369 4 38892 3 329 327 -4.5 5.2718601265736 4.2087096725092 839.71015257222
6	65502 7121 3 38892 2 329 328 0 27.768710480146 3402.995902402 61482.166058641
5	72623 8704 2 38892 1 329 329 1216.6507663699 2120.7953938423 505919.66680534 797148458.81577
4	81327 8782 2 38892 1 329 329 207.44331344846 2450.4278615726 421826.82542971 717192203.11406
vector 984  RSUExampleScenario.node[140].veinsmobility  posx  ETV
vector 985  RSUExampleScenario.node[140].veinsmobility  posy  ETV
vector 986  RSUExampleScenario.node[140].veinsmobility  speed  ETV
vector 987  RSUExampleScenario.node[140].veinsmobility  acceleration  ETV
vector 988  RSUExampleScenario.node[140].veinsmobility  co2emission  ETV
vector 991  RSUExampleScenario.node[141].veinsmobility  posx  ETV
vector 992  RSUExampleScenario.node[141].veinsmobility  posy  ETV
vector 993  RSUExampleScenario.node[141].veinsmobility  speed  ETV
vector 994  RSUExampleScenario.node[141].veinsmobility  acceleration  ETV
vector 995  RSUExampleScenario.node[141].veinsmobility  co2emission  ETV
vector 998  RSUExampleScenario.node[142].veinsmobility  posx  ETV
vector 999  RSUExampleScenario.node[142].veinsmobility  posy  ETV
vector 1000  RSUExampleScenario.node[142].veinsmobility  speed  ETV
vector 1001  RSUExampleScenario.node[142].veinsmobility  acceleration  ETV
vector 1002  RSUExampleScenario.node[142].veinsmobility  co2emission  ETV
vector 1005  RSUExampleScenario.node[143].veinsmobility  posx  ETV
vector 1006  RSUExampleScenario.node[143].veinsmobility  posy  ETV
vector 1007  RSUExampleScenario.node[143].veinsmobility  speed  ETV
vector 1008  RSUExampleScenario.node[143].veinsmobility  acceleration  ETV
vector 1009  RSUExampleScenario.node[143].veinsmobility  co2emission  ETV
15	91501 8996 6 47496 5 405 401 0.973 15.069549340392 904.73901897493 4041.6313562356
14	100497 9301 6 47496 5 405 401 -1.5 1.8769278560785 2.2050460354028 320.45632411765
13	109798 9273 5 47496 4 405 402 0 27.778188040318 3396.4601251981 55905.366648415
12	119071 11227 4 47496 3 405 403 1216.9733083397 2120.893814832 635306.51144871 1035835797.3074
11	130298 11232 4 47496 3 405 403 204.36942886107 2450.3140188782 523352.59441743 937067440.38501
43	141530 9266 13 47576 12 424 413 0.973 28.913408316741 959.53170646769 7033.2913760746
42	150796 9700 13 47576 12 424 413 -4.5 5.0747357499794 2.8421002806424 635.47298834626
41	160496 9275 12 47576 11 424 414 0 27.763528873604 3400.570903675 59144.944014229
40	169771 11658 11 47576 10 424 415 1218.9415205354 2120.3819291405 655835.15696149 1072002117.9342
39	181429 11648 11 47576 10 424 415 210.71385195747 2450.3526944926 542089.04693313 975237038.43152
22	193077 9984 8 47705 7 456 450 0.973 30.813682513993 1090.728000798 7822.8580908485
21	203061 10114 8 47705 7 456 450 -4.5 5.0165304572117 7.667149148748 962.65938076171
20	213175 9874 7 47705 6 456 451 0 27.777677725879 3405.8294587297 58471.214922631
19	223049 12658 6 47705 5 456 452 1217.4898202093 2120.5535120554 703529.33543231 1132663369.454
18	235707 12636 6 47705 5 456 452 208.15121065499 2450.0954562895 584038.39812543 1005044741.6284
vector 1012  RSUExampleScenario.node[144].veinsmobility  posx  ETV
vector 1013  RSUExampleScenario.node[144].veinsmobility  posy  ETV
vector 1019  RSUExampleScenario.node[145].veinsmobility  posx  ETV
vector 1020  RSUExampleScenario.node[145].veinsmobility  posy  ETV
vector 1014  RSUExampleScenario.node[144].veinsmobility  speed  ETV
vector 1026  RSUExampleScenario.node[146].veinsmobility  posx  ETV
vector 1027  RSUExampleScenario.node[146].veinsmobility  posy  ETV
vector 1015  RSUExampleScenario.node[144].veinsmobility  acceleration  ETV
vector 1016  RSUExampleScenario.node[144].veinsmobility  co2emission  ETV
vector 1021  RSUExampleScenario.node[145].veinsmobility  speed  ETV
vector 1022  RSUExampleScenario.node[145].veinsmobility  acceleration  ETV
vector 1023  RSUExampleScenario.node[145].veinsmobility  co2emission  ETV
vector 1028  RSUExampleScenario.node[146].veinsmobility  speed  ETV
vector 1033  RSUExampleScenario.node[147].veinsmobility  posx  ETV
vector 1034  RSUExampleScenario.node[147].veinsmobility  posy  ETV
vector 1029  RSUExampleScenario.node[146].veinsmobility  acceleration  ETV
vector 1030  RSUExampleScenario.node[146].veinsmobility  co2emission  ETV
vector 1040  RSUExampleScenario.node[148].veinsmobility  posx  ETV
vector 1041  RSUExampleScenario.node[148].veinsmobility  posy  ETV
vector 1035  RSUExampleScenario.node[147].veinsmobility  speed  ETV
vector 1036  RSUExampleScenario.node[147].veinsmobility  acceleration  ETV
vector 1037  RSUExampleScenario.node[147].veinsmobility  co2emission  ETV
vector 1042  RSUExampleScenario.node[148].veinsmobility  speed  ETV
vector 1047  RSUExampleScenario.node[149].veinsmobility  posx  ETV
vector 1048  RSUExampleScenario.node[149].veinsmobility  posy  ETV
vector 1043  RSUExampleScenario.node[148].veinsmobility  acceleration  ETV
vector 1044  RSUExampleScenario.node[148].veinsmobility  co2emission  ETV
36	250232 10375 11 47810 10 480 471 0.973 29.783652142168 1122.8445375198 8438.0379073466
35	260607 10798 11 47810 10 480 471 -4.5 5.1420364393135 6.8310381288626 998.40575291518
34	271405 10435 10 47810 9 480 472 0 27.75182667057 3403.0706455783 57522.23333262
33	281840 13323 9 47810 8 480 473 1216.5339906551 2120.3836950734 737882.03983989 1188250846.1159
32	295163 13328 9 47810 8 480 473 208.05375019507 2450.4834751619 612363.34582718 1048735689.3499
vector 1054  RSUExampleScenario.node[150].veinsmobility  posx  ETV
vector 1055  RSUExampleScenario.node[150].veinsmobility  posy  ETV
vector 1049  RSUExampleScenario.node[149].veinsmobility  speed  ETV
vector 1061  RSUExampleScenario.node[151].veinsmobility  posx  ETV
vector 1062  RSUExampleScenario.node[151].veinsmobility  posy  ETV
vector 1050  RSUExampleScenario.node[149].veinsmobility  acceleration  ETV
vector 1051  RSUExampleScenario.node[149].veinsmobility  co2emission  ETV
vector 1056  RSUExampleScenario.node[150].veinsmobility  speed  ETV
vector 1057  RSUExampleScenario.node[150].veinsmobility  acceleration  ETV
vector 1058  RSUExampleScenario.node[150].veinsmobility  co2emission  ETV
vector 1063  RSUExampleScenario.node[151].veinsmobility  speed  ETV
vector 1068  RSUExampleScenario.node[152].veinsmobility  posx  ETV
vector 1069  RSUExampleScenario.node[152].veinsmobility  posy  ETV
vector 1064  RSUExampleScenario.node[151].veinsmobility  acceleration  ETV
vector 1065  RSUExampleScenario.node[151].veinsmobility  co2emission  ETV
vector 1075  RSUExampleScenario.node[153].veinsmobility  posx  ETV
vector 1076  RSUExampleScenario.node[153].veinsmobility  posy  ETV
vector 1070  RSUExampleScenario.node[152].veinsmobility  speed  ETV
99	309746 10533 28 47832 27 485 459 0.77427503412539 26.220376500776 1072.492195653 6764.9130605009
98	320279 11190 28 47832 27 485 459 -4.5 5.3432403388992 8.0932678501556 796.32120199125
97	331469 10799 27 47832 26 485 460 0 27.763474684097 3407.0815327641 55889.74182379
96	342268 12998 26 47832 25 485 461 1216.5041042874 2120.6161878332 724483.05344854 1182838014.7172
95	355266 13038 26 47832 25 485 461 207.40452846175 2450.2129085162 642832.09376803 1157100585.3363
vector 1071  RSUExampleScenario.node[152].veinsmobility  acceleration  ETV
vector 1072  RSUExampleScenario.node[152].veinsmobility  co2emission  ETV
vector 1077  RSUExampleScenario.node[153].veinsmobility  speed  ETV
vector 1082  RSUExampleScenario.node[154].veinsmobility  posx  ETV
vector 1083  RSUExampleScenario.node[154].veinsmobility  posy  ETV
vector 1078  RSUExampleScenario.node[153].veinsmobility  acceleration  ETV
vector 1079  RSUExampleScenario.node[153].veinsmobility  co2emission  ETV
vector 1089  RSUExampleScenario.node[155].veinsmobility  posx  ETV
vector 1090  RSUExampleScenario.node[155].veinsmobility  posy  ETV
vector 1084  RSUExampleScenario.node[154].veinsmobility  speed  ETV
vector 1096  RSUExampleScenario.node[156].veinsmobility  posx  ETV
vector 1097  RSUExampleScenario.node[156].veinsmobility  posy  ETV
vector 1085  RSUExampleScenario.node[154].veinsmobility  acceleration  ETV
vector 1086  RSUExampleScenario.node[154].veinsmobility  co2emission  ETV
vector 1091  RSUExampleScenario.node[155].veinsmobility  speed  ETV
vector 1092  RSUExampleScenario.node[155].veinsmobility  acceleration  ETV
vector 1093  RSUExampleScenario.node[155].veinsmobility  co2emission  ETV
vector 1098  RSUExampleScenario.node[156].veinsmobility  speed  ETV
vector 1103  RSUExampleScenario.node[157].veinsmobility  posx  ETV
vector 1104  RSUExampleScenario.node[157].veinsmobility  posy  ETV
vector 1099  RSUExampleScenario.node[156].veinsmobility  acceleration  ETV
vector 1100  RSUExampleScenario.node[156].veinsmobility  co2emission  ETV
vector 1110  RSUExampleScenario.node[158].veinsmobility  posx  ETV
vector 1111  RSUExampleScenario.node[158].veinsmobility  posy  ETV
vector 1105  RSUExampleScenario.node[157].veinsmobility  speed  ETV
vector 1106  RSUExampleScenario.node[157].veinsmobility  acceleration  ETV
vector 1107  RSUExampleScenario.node[157].veinsmobility  co2emission  ETV
vector 1112  RSUExampleScenario.node[158].veinsmobility  speed  ETV
vector 1117  RSUExampleScenario.node[159].veinsmobility  posx  ETV
vector 1118  RSUExampleScenario.node[159].veinsmobility  posy  ETV
vector 1113  RSUExampleScenario.node[158].veinsmobility  acceleration  ETV
vector 1114  RSUExampleScenario.node[158].veinsmobility  co2emission  ETV
vector 1124  RSUExampleScenario.node[160].veinsmobility  posx  ETV
vector 1125  RSUExampleScenario.node[160].veinsmobility  posy  ETV
vector 1119  RSUExampleScenario.node[159].veinsmobility  speed  ETV
vector 1131  RSUExampleScenario.node[161].veinsmobility  posx  ETV
vector 1132  RSUExampleScenario.node[161].veinsmobility  posy  ETV
vector 1120  RSUExampleScenario.node[159].veinsmobility  acceleration  ETV
vector 1121  RSUExampleScenario.node[159].veinsmobility  co2emission  ETV
vector 1126  RSUExampleScenario.node[160].veinsmobility  speed  ETV
vector 1127  RSUExampleScenario.node[160].veinsmobility  acceleration  ETV
vector 1128  RSUExampleScenario.node[160].veinsmobility  co2emission  ETV
vector 1133  RSUExampleScenario.node[161].veinsmobility  speed  ETV
vector 1138  RSUExampleScenario.node[162].veinsmobility  posx  ETV
vector 1139  RSUExampleScenario.node[162].veinsmobility  posy  ETV
vector 1134  RSUExampleScenario.node[161].veinsmobility  acceleration  ETV
vector 1135  RSUExampleScenario.node[161].veinsmobility  co2emission  ETV
vector 1145  RSUExampleScenario.node[163].veinsmobility  posx  ETV
vector 1146  RSUExampleScenario.node[163].veinsmobility  posy  ETV
vector 1140  RSUExampleScenario.node[162].veinsmobility  speed  ETV
vector 1141  RSUExampleScenario.node[162].veinsmobility  acceleration  ETV
vector 1142  RSUExampleScenario.node[162].veinsmobility  co2emission  ETV
vector 1147  RSUExampleScenario.node[163].veinsmobility  speed  ETV
vector 1152  RSUExampleScenario.node[164].veinsmobility  posx  ETV
vector 1153  RSUExampleScenario.node[164].veinsmobility  posy  ETV
vector 1148  RSUExampleScenario.node[163].veinsmobility  acceleration  ETV
vector 1149  RSUExampleScenario.node[163].veinsmobility  co2emission  ETV
vector 1159  RSUExampleScenario.node[165].veinsmobility  posx  ETV
vector 1160  RSUExampleScenario.node[165].veinsmobility  posy  ETV
vector 1154  RSUExampleScenario.node[164].veinsmobility  speed  ETV
vector 1166  RSUExampleScenario.node[166].veinsmobility  posx  ETV
vector 1167  RSUExampleScenario.node[166].veinsmobility  posy  ETV
vector 1155  RSUExampleScenario.node[164].veinsmobility  acceleration  ETV
vector 1156  RSUExampleScenario.node[164].veinsmobility  co2emission  ETV
vector 1161  RSUExampleScenario.node[165].veinsmobility  speed  ETV
vector 1162  RSUExampleScenario.node[165].veinsmobility  acceleration  ETV
vector 1163  RSUExampleScenario.node[165].veinsmobility  co2emission  ETV
vector 1168  RSUExampleScenario.node[166].veinsmobility  speed  ETV
vector 1173  RSUExampleScenario.node[167].veinsmobility  posx  ETV
vector 1174  RSUExampleScenario.node[167].veinsmobility  posy  ETV
vector 1169  RSUExampleScenario.node[166].veinsmobility  acceleration  ETV
vector 1170  RSUExampleScenario.node[166].veinsmobility  co2emission  ETV
vector 1180  RSUExampleScenario.node[168].veinsmobility  posx  ETV
vector 1181  RSUExampleScenario.node[168].veinsmobility  posy  ETV
vector 1175  RSUExampleScenario.node[167].veinsmobility  speed  ETV
vector 1176  RSUExampleScenario.node[167].veinsmobility  acceleration  ETV
vector 1177  RSUExampleScenario.node[167].veinsmobility  co2emission  ETV
vector 1182  RSUExampleScenario.node[168].veinsmobility  speed  ETV
vector 1187  RSUExampleScenario.node[169].veinsmobility  posx  ETV
vector 1188  RSUExampleScenario.node[169].veinsmobility  posy  ETV
vector 1183  RSUExampleScenario.node[168].veinsmobility  acceleration  ETV
vector 1184  RSUExampleScenario.node[168].veinsmobility  co2emission  ETV
vector 1194  RSUExampleScenario.node[170].veinsmobility  posx  ETV
vector 1195  RSUExampleScenario.node[170].veinsmobility  posy  ETV
vector 1189  RSUExampleScenario.node[169].veinsmobility  speed  ETV
vector 1190  RSUExampleScenario.node[169].veinsmobility  acceleration  ETV
vector 1191  RSUExampleScenario.node[169].veinsmobility  co2emission  ETV
vector 1196  RSUExampleScenario.node[170].veinsmobility  speed  ETV
vector 1201  RSUExampleScenario.node[171].veinsmobility  posx  ETV
vector 1202  RSUExampleScenario.node[171].veinsmobility  posy  ETV
vector 1197  RSUExampleScenario.node[170].veinsmobility  acceleration  ETV
vector 1198  RSUExampleScenario.node[170].veinsmobility  co2emission  ETV
vector 1208  RSUExampleScenario.node[172].veinsmobility  posx  ETV
vector 1209  RSUExampleScenario.node[172].veinsmobility  posy  ETV
vector 1203  RSUExampleScenario.node[171].veinsmobility  speed  ETV
vector 1204  RSUExampleScenario.node[171].veinsmobility  acceleration  ETV
vector 1205  RSUExampleScenario.node[171].veinsmobility  co2emission  ETV
vector 1210  RSUExampleScenario.node[172].veinsmobility  speed  ETV
vector 1215  RSUExampleScenario.node[173].veinsmobility  posx  ETV
vector 1216  RSUExampleScenario.node[173].veinsmobility  posy  ETV
vector 1211  RSUExampleScenario.node[172].veinsmobility  acceleration  ETV
vector 1212  RSUExampleScenario.node[172].veinsmobility  co2emission  ETV
vector 1222  RSUExampleScenario.node[174].veinsmobility  posx  ETV
vector 1223  RSUExampleScenario.node[174].veinsmobility  posy  ETV
vector 1217  RSUExampleScenario.node[173].veinsmobility  speed  ETV
vector 1218  RSUExampleScenario.node[173].veinsmobility  acceleration  ETV
vector 1219  RSUExampleScenario.node[173].veinsmobility  co2emission  ETV
vector 1224  RSUExampleScenario.node[174].veinsmobility  speed  ETV
vector 1229  RSUExampleScenario.node[175].veinsmobility  posx  ETV
vector 1230  RSUExampleScenario.node[175].veinsmobility  posy  ETV
vector 1225  RSUExampleScenario.node[174].veinsmobility  acceleration  ETV
vector 1226  RSUExampleScenario.node[174].veinsmobility  co2emission  ETV
vector 1236  RSUExampleScenario.node[176].veinsmobility  posx  ETV
vector 1237  RSUExampleScenario.node[176].veinsmobility  posy  ETV
vector 1231  RSUExampleScenario.node[175].veinsmobility  speed  ETV
vector 1232  RSUExampleScenario.node[175].veinsmobility  acceleration  ETV
vector 1233  RSUExampleScenario.node[175].veinsmobility  co2emission  ETV
vector 1238  RSUExampleScenario.node[176].veinsmobility  speed  ETV
vector 1243  RSUExampleScenario.node[177].veinsmobility  posx  ETV
vector 1244  RSUExampleScenario.node[177].veinsmobility  posy  ETV
vector 1239  RSUExampleScenario.node[176].veinsmobility  acceleration  ETV
vector 1240  RSUExampleScenario.node[176].veinsmobility  co2emission  ETV
vector 1245  RSUExampleScenario.node[177].veinsmobility  speed  ETV
vector 1250  RSUExampleScenario.node[178].veinsmobility  posx  ETV
vector 1251  RSUExampleScenario.node[178].veinsmobility  posy  ETV
vector 1246  RSUExampleScenario.node[177].veinsmobility  acceleration  ETV
vector 1247  RSUExampleScenario.node[177].veinsmobility  co2emission  ETV
vector 1257  RSUExampleScenario.node[179].veinsmobility  posx  ETV
vector 1258  RSUExampleScenario.node[179].veinsmobility  posy  ETV
vector 1252  RSUExampleScenario.node[178].veinsmobility  speed  ETV
vector 1253  RSUExampleScenario.node[178].veinsmobility  acceleration  ETV
vector 1254  RSUExampleScenario.node[178].veinsmobility  co2emission  ETV
vector 1259  RSUExampleScenario.node[179].veinsmobility  speed  ETV
71	377647 11272 20 60396 19 524 506 0.36124146206979 28.770881517004 1138.2518105928 8432.8206688725
70	388919 11934 20 60396 19 524 506 -4.4834635983931 5.1823274461957 6.8240791792811 844.5345767959
69	400853 11466 19 60396 18 524 507 0 27.771861459516 3402.0875832058 57017.685741749
68	412319 14333 18 60396 17 524 508 1218.0764124896 2120.5161766419 773816.77425393 1225523615.2728
67	426652 14356 18 60396 17 524 508 209.49061222805 2450.3971729765 656689.83520496 1120396952.6988
vector 1264  RSUExampleScenario.node[180].veinsmobility  posx  ETV
vector 1265  RSUExampleScenario.node[180].veinsmobility  posy  ETV
vector 1260  RSUExampleScenario.node[179].veinsmobility  acceleration  ETV
vector 1261  RSUExampleScenario.node[179].veinsmobility  co2emission  ETV
vector 1266  RSUExampleScenario.node[180].veinsmobility  speed  ETV
vector 1271  RSUExampleScenario.node[181].veinsmobility  posx  ETV
vector 1272  RSUExampleScenario.node[181].veinsmobility  posy  ETV
vector 1267  RSUExampleScenario.node[180].veinsmobility  acceleration  ETV
vector 1268  RSUExampleScenario.node[180].veinsmobility  co2emission  ETV
vector 1273  RSUExampleScenario.node[181].veinsmobility  speed  ETV
vector 1278  RSUExampleScenario.node[182].veinsmobility  posx  ETV
vector 1279  RSUExampleScenario.node[182].veinsmobility  posy  ETV
vector 1274  RSUExampleScenario.node[181].veinsmobility  acceleration  ETV
vector 1275  RSUExampleScenario.node[181].veinsmobility  co2emission  ETV
vector 1285  RSUExampleScenario.node[183].veinsmobility  posx  ETV
vector 1286  RSUExampleScenario.node[183].veinsmobility  posy  ETV
vector 1280  RSUExampleScenario.node[182].veinsmobility  speed  ETV
vector 1281  RSUExampleScenario.node[182].veinsmobility  acceleration  ETV
vector 1282  RSUExampleScenario.node[182].veinsmobility  co2emission  ETV
vector 1287  RSUExampleScenario.node[183].veinsmobility  speed  ETV
vector 1292  RSUExampleScenario.node[184].veinsmobility  posx  ETV
vector 1293  RSUExampleScenario.node[184].veinsmobility  posy  ETV
vector 1288  RSUExampleScenario.node[183].veinsmobility  acceleration  ETV
vector 1289  RSUExampleScenario.node[183].veinsmobility  co2emission  ETV
vector 1294  RSUExampleScenario.node[184].veinsmobility  speed  ETV
vector 1299  RSUExampleScenario.node[185].veinsmobility  posx  ETV
vector 1300  RSUExampleScenario.node[185].veinsmobility  posy  ETV
vector 1295  RSUExampleScenario.node[184].veinsmobility  acceleration  ETV
vector 1296  RSUExampleScenario.node[184].veinsmobility  co2emission  ETV
vector 1301  RSUExampleScenario.node[185].veinsmobility  speed  ETV
vector 1306  RSUExampleScenario.node[186].veinsmobility  posx  ETV
vector 1307  RSUExampleScenario.node[186].veinsmobility  posy  ETV
vector 1302  RSUExampleScenario.node[185].veinsmobility  acceleration  ETV
vector 1303  RSUExampleScenario.node[185].veinsmobility  co2emission  ETV
vector 1308  RSUExampleScenario.node[186].veinsmobility  speed  ETV
vector 1313  RSUExampleScenario.node[187].veinsmobility  posx  ETV
vector 1314  RSUExampleScenario.node[187].veinsmobility  posy  ETV
vector 1309  RSUExampleScenario.node[186].veinsmobility  acceleration  ETV
vector 1310  RSUExampleScenario.node[186].veinsmobility  co2emission  ETV
vector 1315  RSUExampleScenario.node[187].veinsmobility  speed  ETV
vector 1320  RSUExampleScenario.node[188].veinsmobility  posx  ETV
vector 1321  RSUExampleScenario.node[188].veinsmobility  posy  ETV
vector 1316  RSUExampleScenario.node[187].veinsmobility  acceleration  ETV
vector 1317  RSUExampleScenario.node[187].veinsmobility  co2emission  ETV
vector 1322  RSUExampleScenario.node[188].veinsmobility  speed  ETV
vector 1327  RSUExampleScenario.node[189].veinsmobility  posx  ETV
vector 1328  RSUExampleScenario.node[189].veinsmobility  posy  ETV
vector 1323  RSUExampleScenario.node[188].veinsmobility  acceleration  ETV
vector 1324  RSUExampleScenario.node[188].veinsmobility  co2emission  ETV
vector 1329  RSUExampleScenario.node[189].veinsmobility  speed  ETV
vector 1334  RSUExampleScenario.node[190].veinsmobility  posx  ETV
vector 1335  RSUExampleScenario.node[190].veinsmobility  posy  ETV
vector 1330  RSUExampleScenario.node[189].veinsmobility  acceleration  ETV
vector 1331  RSUExampleScenario.node[189].veinsmobility  co2emission  ETV
vector 1336  RSUExampleScenario.node[190].veinsmobility  speed  ETV
vector 1341  RSUExampleScenario.node[191].veinsmobility  posx  ETV
vector 1342  RSUExampleScenario.node[191].veinsmobility  posy  ETV
vector 1337  RSUExampleScenario.node[190].veinsmobility  acceleration  ETV
vector 1338  RSUExampleScenario.node[190].veinsmobility  co2emission  ETV
vector 1348  RSUExampleScenario.node[192].veinsmobility  posx  ETV
vector 1349  RSUExampleScenario.node[192].veinsmobility  posy  ETV
vector 1343  RSUExampleScenario.node[191].veinsmobility  speed  ETV
57	445354 11853 17 60480 16 547 532 0.973 23.313052489229 1132.0380718584 6487.151550216
56	457207 12787 17 60480 16 547 532 -4.3104625889286 4.8400785577729 6.2512213417711 716.00496069888
55	469994 12292 16 60480 15 547 533 0 27.737601034408 3399.5393452464 56250.054876539
54	482286 15116 15 60480 14 547 534 1217.2573298942 2120.6620206097 803854.177021 1258478493.936
53	497402 15089 15 60480 14 547 534 211.3324065702 2450.0600857328 677029.040257 1132392689.0539
vector 1344  RSUExampleScenario.node[191].veinsmobility  acceleration  ETV
vector 1345  RSUExampleScenario.node[191].veinsmobility  co2emission  ETV
vector 1350  RSUExampleScenario.node[192].veinsmobility  speed  ETV
vector 1355  RSUExampleScenario.node[193].veinsmobility  posx  ETV
vector 1356  RSUExampleScenario.node[193].veinsmobility  posy  ETV
vector 1351  RSUExampleScenario.node[192].veinsmobility  acceleration  ETV
vector 1352  RSUExampleScenario.node[192].veinsmobility  co2emission  ETV
vector 1357  RSUExampleScenario.node[193].veinsmobility  speed  ETV
29	513059 12239 10 60492 9 550 542 -0.59656284061144 30.360151436556 1209.8216443557 8681.643840155
28	525298 13102 10 60492 9 550 542 -4.5 5.1017067492299 6.3590126559212 974.65961514
27	538400 12678 9 60492 8 550 543 0 27.750909077181 3403.5611488657 57365.480689624
26	551078 15372 8 60492 7 550 544 1217.094949876 2120.8036144441 810908.1141737 1255937945.155
25	566450 15293 8 60492 7 550 544 208.08951906068 2450.3857637221 658794.19768448 1072061052.2072
vector 1358  RSUExampleScenario.node[193].veinsmobility  acceleration  ETV
vector 1359  RSUExampleScenario.node[193].veinsmobility  co2emission  ETV
vector 1362  RSUExampleScenario.node[194].veinsmobility  posx  ETV
vector 1363  RSUExampleScenario.node[194].veinsmobility  posy  ETV
vector 1364  RSUExampleScenario.node[194].veinsmobility  speed  ETV
vector 1369  RSUExampleScenario.node[195].veinsmobility  posx  ETV
vector 1370  RSUExampleScenario.node[195].veinsmobility  posy  ETV
vector 1365  RSUExampleScenario.node[194].veinsmobility  acceleration  ETV
vector 1366  RSUExampleScenario.node[194].veinsmobility  co2emission  ETV
vector 1371  RSUExampleScenario.node[195].veinsmobility  speed  ETV
vector 1376  RSUExampleScenario.node[196].veinsmobility  posx  ETV
vector 1377  RSUExampleScenario.node[196].veinsmobility  posy  ETV
vector 1372  RSUExampleScenario.node[195].veinsmobility  acceleration  ETV
vector 1373  RSUExampleScenario.node[195].veinsmobility  co2emission  ETV
vector 1378  RSUExampleScenario.node[196].veinsmobility  speed  ETV
vector 1383  RSUExampleScenario.node[197].veinsmobility  posx  ETV
vector 1384  RSUExampleScenario.node[197].veinsmobility  posy  ETV
vector 1379  RSUExampleScenario.node[196].veinsmobility  acceleration  ETV
vector 1380  RSUExampleScenario.node[196].veinsmobility  co2emission  ETV
vector 1385  RSUExampleScenario.node[197].veinsmobility  speed  ETV
vector 1390  RSUExampleScenario.node[198].veinsmobility  posx  ETV
vector 1391  RSUExampleScenario.node[198].veinsmobility  posy  ETV
vector 1386  RSUExampleScenario.node[197].veinsmobility  acceleration  ETV
vector 1387  RSUExampleScenario.node[197].veinsmobility  co2emission  ETV
50	583430 12239 15 60531 14 560 547 0.973 13.87747216524 1080.9824166882 4454.2104092608
49	595669 13157 15 60531 14 560 547 -1.5 1.941955567383 4.662564103264 385.01631214386
48	608826 12980 14 60531 13 560 548 0 27.779343798762 3399.978639938 51963.243335352
47	621806 15526 13 60531 12 560 549 1216.6644788915 2120.9336745767 828423.68139912 1296999560.8278
46	637332 15486 13 60531 12 560 549 203.98681328329 2450.4068745655 702476.15262458 1167851119.1285
vector 1392  RSUExampleScenario.node[198].veinsmobility  speed  ETV
vector 1397  RSUExampleScenario.node[199].veinsmobility  posx  ETV
vector 1398  RSUExampleScenario.node[199].veinsmobility  posy  ETV
vector 1393  RSUExampleScenario.node[198].veinsmobility  acceleration  ETV
vector 1394  RSUExampleScenario.node[198].veinsmobility  co2emission  ETV
vector 1399  RSUExampleScenario.node[199].veinsmobility  speed  ETV
vector 1404  RSUExampleScenario.node[200].veinsmobility  posx  ETV
vector 1405  RSUExampleScenario.node[200].veinsmobility  posy  ETV
vector 1400  RSUExampleScenario.node[199].veinsmobility  acceleration  ETV
vector 1401  RSUExampleScenario.node[199].veinsmobility  co2emission  ETV
vector 1406  RSUExampleScenario.node[200].veinsmobility  speed  ETV
vector 1411  RSUExampleScenario.node[201].veinsmobility  posx  ETV
vector 1412  RSUExampleScenario.node[201].veinsmobility  posy  ETV
vector 1407  RSUExampleScenario.node[200].veinsmobility  acceleration  ETV
vector 1408  RSUExampleScenario.node[200].veinsmobility  co2emission  ETV
vector 1413  RSUExampleScenario.node[201].veinsmobility  speed  ETV
vector 1418  RSUExampleScenario.node[202].veinsmobility  posx  ETV
vector 1419  RSUExampleScenario.node[202].veinsmobility  posy  ETV
vector 1414  RSUExampleScenario.node[201].veinsmobility  acceleration  ETV
vector 1415  RSUExampleScenario.node[201].veinsmobility  co2emission  ETV
vector 1420  RSUExampleScenario.node[202].veinsmobility  speed  ETV
vector 1425  RSUExampleScenario.node[203].veinsmobility  posx  ETV
vector 1426  RSUExampleScenario.node[203].veinsmobility  posy  ETV
vector 1421  RSUExampleScenario.node[202].veinsmobility  acceleration  ETV
vector 1422  RSUExampleScenario.node[202].veinsmobility  co2emission  ETV
vector 1427  RSUExampleScenario.node[203].veinsmobility  speed  ETV
vector 1432  RSUExampleScenario.node[204].veinsmobility  posx  ETV
vector 1433  RSUExampleScenario.node[204].veinsmobility  posy  ETV
vector 1428  RSUExampleScenario.node[203].veinsmobility  acceleration  ETV
vector 1429  RSUExampleScenario.node[203].veinsmobility  co2emission  ETV
vector 1434  RSUExampleScenario.node[204].veinsmobility  speed  ETV
vector 1439  RSUExampleScenario.node[205].veinsmobility  posx  ETV
vector 1440  RSUExampleScenario.node[205].veinsmobility  posy  ETV
vector 1435  RSUExampleScenario.node[204].veinsmobility  acceleration  ETV
vector 1436  RSUExampleScenario.node[204].veinsmobility  co2emission  ETV
vector 1441  RSUExampleScenario.node[205].veinsmobility  speed  ETV
vector 1446  RSUExampleScenario.node[206].veinsmobility  posx  ETV
vector 1447  RSUExampleScenario.node[206].veinsmobility  posy  ETV
vector 1442  RSUExampleScenario.node[205].veinsmobility  acceleration  ETV
vector 1443  RSUExampleScenario.node[205].veinsmobility  co2emission  ETV
vector 1448  RSUExampleScenario.node[206].veinsmobility  speed  ETV
vector 1453  RSUExampleScenario.node[207].veinsmobility  posx  ETV
vector 1454  RSUExampleScenario.node[207].veinsmobility  posy  ETV
vector 1449  RSUExampleScenario.node[206].veinsmobility  acceleration  ETV
vector 1450  RSUExampleScenario.node[206].veinsmobility  co2emission  ETV
vector 1455  RSUExampleScenario.node[207].veinsmobility  speed  ETV
vector 1460  RSUExampleScenario.node[208].veinsmobility  posx  ETV
vector 1461  RSUExampleScenario.node[208].veinsmobility  posy  ETV
vector 1456  RSUExampleScenario.node[207].veinsmobility  acceleration  ETV
vector 1457  RSUExampleScenario.node[207].veinsmobility  co2emission  ETV
vector 1462  RSUExampleScenario.node[208].veinsmobility  speed  ETV
vector 1467  RSUExampleScenario.node[209].veinsmobility  posx  ETV
vector 1468  RSUExampleScenario.node[209].veinsmobility  posy  ETV
vector 1463  RSUExampleScenario.node[208].veinsmobility  acceleration  ETV
vector 1464  RSUExampleScenario.node[208].veinsmobility  co2emission  ETV
vector 1469  RSUExampleScenario.node[209].veinsmobility  speed  ETV
[...]
2478	34621755 18195 146622 157663 2259 2866 608 -4.5 5.0474656880461 3.590111826105 951.66011243249
2477	34639950 17673 146620 157663 2258 2866 609 0 27.757688775519 3393.8797385792 59429.353686774
2476	34657623 19929 146619 157663 2257 2866 610 1216.432401034 2120.5295504229 1048675.3472624 1846898475.1971
2475	34677552 20039 146619 157663 2257 2866 610 211.86001230206 2450.317004733 1206774.9735009 2632401863.8851
2472	34697591 16711 146620 157666 2258 2869 612 0.973 28.809128498667 1303.9721368724 9953.9109035058
2471	34714302 18277 146620 157666 2258 2869 612 -4.5 5.0536240842411 3.5532769127968 966.11833659075
2470	34732579 17823 146619 157666 2257 2869 613 0 27.767137259515 3399.7112492734 58021.620710725
2469	34750402 20226 146618 157666 2256 2869 614 1217.777909725 2120.791963784 1064458.3343754 1886875618.0715
2468	34770628 20226 146618 157666 2256 2869 614 208.79295364895 2450.4796730331 1212144.5161177 2631073438.3652
2486	34790854 16735 146623 157670 2260 2871 612 0.973 28.981042823819 1223.2800544281 8058.8922488138
2485	34807589 18284 146623 157670 2260 2871 612 -4.5 4.9887192774005 5.9935984707535 712.10425963848
2484	34825873 17740 146622 157670 2259 2871 613 0 27.7701992168 3401.8084947051 58873.115275336
2483	34843613 20173 146620 157670 2258 2871 614 1216.4969915897 2120.5765097877 1083990.4045435 1957156678.5649
2482	34863786 20221 146620 157670 2258 2871 614 210.75634925044 2450.1125818848 1245298.5512782 2760200604.6387
2493	34884007 16866 146626 157676 2262 2875 614 0.973 32.336298793031 1248.5735785059 8889.3120535468
2492	34900873 18360 146626 157676 2262 2875 614 -4.5 5.2199316212838 3.681883006027 753.22432491329
2491	34919233 17851 146624 157676 2261 2875 615 0 27.764449346354 3400.9834166111 57962.422101086
2490	34937084 20216 146623 157676 2260 2875 616 1218.491491328 2120.6195519539 1083867.1247405 1948322420.6922
2489	34957300 20281 146623 157676 2260 2875 616 210.15603344701 2450.2858532647 1248907.6736955 2760194850.7097
2500	34977581 17482 146627 157704 2263 2895 633 0.973 29.338676590388 1171.8986179133 6290.9670201506
2499	34995063 19059 146627 157704 2263 2895 633 -4.5 5.1631145152543 7.4584401300356 547.6003048373
2498	35014122 18450 146626 157704 2262 2895 634 0 27.779370686375 3405.8173960753 59152.918027557
2497	35032572 20921 146624 157704 2261 2895 635 1216.3743219841 2120.6749112513 1126907.7607605 2045534034.8419
2496	35053493 20867 146624 157704 2261 2895 635 206.73553383129 2450.4964654307 1295041.728395 2871444063.6276
2507	35074360 18155 146629 157751 2265 2925 661 0.973 30.861256232929 1253.4116603435 7600.1913481233
2506	35092515 20196 146629 157751 2265 2925 661 -4.4499283966236 5.398527788111 7.303360258355 689.14635819254
2505	35112711 19557 146628 157751 2264 2925 662 0 27.779819850018 3403.3802654239 60722.778366656
2504	35132268 21839 146627 157751 2263 2925 663 1216.2469163015 2120.9413290666 1183434.5897641 2160453285.0012
2503	35154107 21771 146627 157751 2263 2925 663 206.70222458488 2450.2460157498 1357930.3246548 3013310071.5459
2514	35175878 18207 146630 157754 2266 2927 662 0.973 28.310351878438 1211.7193685807 6734.989447267
2513	35194085 20175 146630 157754 2266 2927 662 -4.3751166247685 4.8944160235782 5.4298672895424 541.5228961542
2512	35214260 19542 146629 157754 2265 2927 663 0 27.765328480164 3398.3370886184 59693.663285335
2511	35233802 21820 146628 157754 2264 2927 664 1217.3035713267 2120.5125167612 1184267.4735343 2160463789.9233
2510	35255622 21765 146628 157754 2264 2927 664 210.68010934908 2450.4652225244 1360433.8830816 3020693489.6655
2521	35277387 18253 146633 157757 2268 2930 663 0.61917415102575 31.049315254058 1262.2962514519 7374.7414084649
2520	35295640 20222 146633 157757 2268 2930 663 -4.5 5.2055987714324 9.142287548409 752.85104912603
2519	35315862 19629 146631 157757 2267 2930 664 0 27.755509283254 3404.3477553162 58897.028562054
2518	35335491 21889 146630 157757 2266 2930 665 1218.4918102426 2120.4011283191 1179014.5916751 2137362506.8844
2517	35357380 21909 146630 157757 2266 2930 665 206.64156246197 2450.5322558833 1362331.3489829 3028703383.336
2528	35379289 18203 146635 157759 2269 2932 664 -0.47283896041693 28.703066955835 1259.1777831026 7093.8421777663
2527	35397492 20161 146635 157759 2269 2932 664 -4.5 5.0742107023485 8.0109831849696 757.35706298959
2526	35417653 19574 146633 157759 2268 2932 665 0 27.771453987909 3405.1518866803 58482.230363979
2525	35437227 21923 146631 157759 2267 2932 666 1218.8894889634 2120.4966512434 1178595.484949 2133339090.8935
2524	35459150 21888 146631 157759 2267 2932 666 208.9455796266 2450.2661667167 1366577.9532758 3042505758.2577
2535	35481038 18222 146637 157762 2271 2934 664 0.80436705995416 25.760432694574 1286.640480633 7971.0671410409
2534	35499260 20141 146637 157762 2271 2934 664 -4.5 5.1890450745914 7.6689873280795 854.74652309336
2533	35519401 19569 146636 157762 2270 2934 665 0 27.776948340274 3399.9817478006 58101.725574499
2532	35538970 21919 146635 157762 2269 2934 666 1219.0428073239 2120.356475709 1170459.6339145 2102008698.77
2531	35560889 21897 146635 157762 2269 2934 666 210.73831454047 2450.1494635624 1376200.8301527 3087388877.6267
2542	35582786 18238 146639 157766 2273 2937 665 0.973 30.424996060437 1290.8679307119 8353.9461443673
2541	35601024 20262 146639 157766 2273 2937 665 -3.6889224652223 5.0772196146473 10.688526360547 775.29612828017
2540	35621286 19639 146638 157766 2272 2937 666 0 27.775054447576 3407.5706478369 59677.251252185
2539	35640925 21888 146637 157766 2271 2937 667 1218.5610398808 2120.6620390993 1160277.2878209 2059568306.587
2538	35662813 21970 146637 157766 2271 2937 667 205.81099645363 2450.1174059802 1387588.4859407 3139225186.2963
2549	35684783 18300 150063 157768 2275 2939 665 0.973 30.205086097131 1327.6277482597 8746.2700940345
2548	35703083 20248 150063 157768 2275 2939 665 -4.5 5.0982889404443 9.1648674110744 942.4519400015
2547	35723331 19681 149629 157768 2274 2939 666 0 27.755149542056 3405.6924229854 58903.031820845
2546	35743012 21963 146639 157768 2273 2939 667 1218.2194052935 2120.4173372844 1146912.9717416 2010055007.2674
2545	35764975 21971 146639 157768 2273 2939 667 208.02307748108 2450.5457589017 1394371.6867966 3170737711.9555
2556	35786946 18214 150067 157771 2277 2941 665 0.973 29.314835392053 1325.8729244351 8415.8658413822
2555	35805160 20213 150067 157771 2277 2941 665 -4.5 4.9577989332112 7.9172586610809 930.82683233225
2554	35825373 19649 150064 157771 2276 2941 666 0 27.746350955199 3401.9891519492 58522.585117918
2553	35845022 21971 150063 157771 2275 2941 667 1218.4817276299 2120.5288536558 1140928.3261576 1988087322.3463
2552	35866993 21832 150063 157771 2275 2941 667 209.83291289036 2450.4796047875 1395641.5647656 3176169120.6104
2563	35888825 18277 150069 157774 2279 2943 665 -0.48221050142229 31.043064956553 1278.3279465854 7926.2640191857
2562	35907102 20221 150069 157774 2279 2943 665 -3.6042272026876 5.1421360470903 7.4635751546468 787.20577652227
2561	35927323 19601 150068 157774 2278 2943 666 0 27.770287210876 3398.4484607081 59130.913874889
2560	35946924 21969 150067 157774 2277 2943 667 1218.2614065632 2120.4389611529 1127733.1125469 1937911737.513
2559	35968893 21938 150067 157774 2277 2943 667 211.31579605967 2450.5457524684 1398906.652499 3191402238.978
2570	35990831 18204 150073 157777 2282 2946 665 0.973 30.850006628056 1269.1161558566 7725.0828346683
2569	36009035 20186 150073 157777 2282 2946 665 -3.3467228290487 5.0632918840647 10.038481914071 721.52407976912
2568	36029221 19559 150072 157777 2281 2946 666 0 27.775916241659 3404.5443212696 58792.182023376
2567	36048780 21960 150071 157777 2280 2946 667 1218.7210842818 2120.7532041278 1125967.946575 1931781624.2302
2566	36070740 21964 150071 157777 2280 2946 667 207.19743459416 2450.2446781559 1397550.2460582 3189266202.7186
2577	36092704 18366 150077 157781 2285 2949 665 0.973 28.459178332809 1286.1075981149 7919.1216432588
2576	36111070 20362 150077 157781 2285 2949 665 -3.6752682578471 5.1712348935101 10.904414753759 752.99471099587
2575	36131432 19739 150076 157781 2284 2949 666 0 27.771525247702 3408.3877176309 61904.373755741
2574	36151171 21838 150074 157781 2283 2949 667 1218.6276686629 2120.960460118 1113463.9702924 1884134653.1639
2573	36173009 21976 150074 157781 2283 2949 667 207.28670798976 2450.2865123468 1409594.9446405 3231506452.5988
2584	36194985 18538 150083 157794 2289 2959 671 0.973 20.724243045553 1209.5685239348 4784.0666626292
2583	36213523 20520 150083 157794 2289 2959 671 -2.5 2.8892111951113 6.9287775229267 431.63325906965
2582	36234043 19980 150082 157794 2288 2959 672 0 27.773329655282 3404.1022527237 58886.939335371
2581	36254023 22177 150081 157794 2287 2959 673 1217.0470493054 2120.6081007542 1122301.9693138 1896922500.5792
2580	36276200 22163 150081 157794 2287 2959 673 206.93676598021 2450.3601439575 1420294.6337762 3255011586.6041
2591	36298363 18281 151341 157800 2298 2963 666 0.973 20.955217749804 1188.9937777695 4699.9688233582
2590	36316644 20261 151341 157800 2298 2963 666 -2.5 2.7220740080367 7.5291104106657 397.52789501075
2589	36336905 19665 151339 157800 2297 2963 667 0 27.774655322166 3402.8544945899 58306.544781488
2588	36356570 21996 151175 157800 2296 2963 668 1217.928769026 2120.6960577387 1112006.9874376 1875998355.3924
2587	36378566 21910 151175 157800 2296 2963 668 207.29438525252 2450.5768026866 1406863.3265168 3223532885.6547
2598	36400476 17094 151808 157898 2427 3048 622 0.38842649722678 21.285398074714 1262.2190129778 6780.3587884112
2597	36417570 18647 151808 157898 2427 3048 622 -2.5 2.7540430857156 7.2466560394692 625.39211835559
2596	36436217 18283 151807 157898 2426 3048 623 0 27.750777769317 3409.4823557903 56212.622083768
2595	36454500 20563 151805 157898 2425 3048 624 1218.9177875221 2120.6817807509 1058158.2926957 1820740395.6422
2594	36475063 20555 151805 157898 2425 3048 624 204.41746693512 2450.6276158495 1278639.7143394 2871562630.785
2605	36495618 17055 151815 157904 2430 3054 625 0.973 18.822454368236 1186.6127543156 5160.9396720346
2604	36512673 18729 151815 157904 2430 3054 625 -2.5 2.8278464625092 3.9299726220908 500.93032584
2603	36531402 18235 151811 157904 2429 3054 626 0 27.778588540487 3406.4445630608 57319.934703083
2602	36549637 20652 151810 157904 2428 3054 627 1218.6177248778 2120.7197437771 1068880.7029653 1851655782.9858
2601	36570289 20616 151810 157904 2428 3054 627 204.85273362533 2450.644255545 1292006.9139224 2912205495.7667
2612	36590905 17230 151818 157918 2432 3065 634 0.973 18.795877734922 1171.8843070011 5038.4455852067
2611	36608135 19099 151818 157918 2432 3065 634 -2.5 2.8491841642753 2.7470597500875 436.53406773483
2610	36627234 18518 151816 157918 2431 3065 635 0 27.777248451492 3399.8954651507 58396.471528257
2609	36645752 20941 151815 157918 2430 3065 636 1216.4479513625 2120.4464820046 1082971.8804765 1873801007.7064
2608	36666693 20825 151815 157918 2430 3065 636 206.4852701975 2450.631815242 1312554.7024108 2956528536.488
2626	36687518 17206 151825 157923 2436 3070 635 -0.087891027600293 19.073053553561 1151.6257253303 4835.2466965752
2625	36704724 19115 151825 157923 2436 3070 635 -2.5 2.9993596461212 2.8005403110015 386.13081722813
2624	36723839 18516 151824 157923 2435 3070 636 0 27.776947036847 3400.9504278765 57678.673002853
2623	36742355 20930 151823 157923 2434 3070 637 1216.9496994903 2120.6779759023 1080930.3014452 1865010165.8868
2622	36763285 20982 151823 157923 2434 3070 637 206.79061057908 2450.3940398259 1315611.5567988 2965536974.5897
2619	36784267 17342 151823 157928 2434 3075 642 0.50450087374944 18.689545854183 1165.3043262439 4843.4025646737
2618	36801609 19367 151823 157928 2434 3075 642 -2.5 2.8954413089051 3.2360479788052 400.69590404978
2617	36820976 18776 151822 157928 2433 3075 643 0 27.766369549518 3401.6473001674 57992.185927703
2616	36839752 21094 151818 157928 2432 3075 644 1218.782888337 2120.5693469932 1094307.9000534 1889605123.5107
2615	36860846 21147 151818 157928 2432 3075 644 205.93897618575 2450.5298642592 1327843.5185194 2987031092.4835
2633	36881993 17391 151827 157931 2438 3078 641 0.973 19.774467621189 1160.5749895014 4689.4653211678
2632	36899384 19305 151827 157931 2438 3078 641 -2.5 2.8689260258712 2.5399088515642 423.93780577881
2631	36918689 18775 151826 157931 2437 3078 642 0 27.546561141705 3398.9949248956 56482.726526697
2630	36937464 21171 151825 157931 2436 3078 643 1217.5246400908 2120.8281410439 1089941.1311053 1879339875.234
2629	36958635 21181 151825 157931 2436 3078 643 207.38266898121 2450.2786009656 1326603.4924993 2990819305.2742
2640	36979816 17470 151831 157936 2440 3082 643 0.973 17.601164651075 1209.042369632 5244.4700422842
2639	36997286 19362 151831 157936 2440 3082 643 -2.5 2.930626009542 4.8147485864263 497.25003852779
2638	37016648 18935 151829 157936 2439 3082 644 0 27.762624286026 3407.2892810507 55441.750737436
2637	37035583 21252 151827 157936 2438 3082 645 1216.9364456525 2120.8551370297 1088159.9350517 1866974990.0573
2636	37056835 21246 151827 157936 2438 3082 645 204.28904876322 2450.2609226 1335614.2974732 3036064143.8272
2647	37078081 17841 151835 157947 2442 3092 651 0.973 18.689311753777 1188.3642256187 5052.9987825532
2646	37095922 19691 151835 157947 2442 3092 651 -2.5 2.7789480711373 3.9549699410594 406.048788044
2645	37115613 19094 151833 157947 2441 3092 652 0 27.779173370441 3405.6978391975 58857.494585911
2644	37134707 21499 151831 157947 2440 3092 653 1217.3879363444 2120.7935959147 1103369.8292411 1895576735.7233
2643	37156206 21509 151831 157947 2440 3092 653 205.20014205959 2450.4100349663 1370889.3639855 3135350307.7028
2654	37177715 17904 151838 157951 2444 3096 653 0.973 19.575434726099 1200.2942400047 5105.8152558961
2653	37195619 19782 151838 157951 2444 3096 653 -2.5 2.9271172068641 4.8884365534322 457.80335685269
2652	37215401 19243 151837 157951 2443 3096 654 0 27.771195191483 3404.4845111057 57645.685938819
2651	37234644 21507 151835 157951 2442 3096 655 1217.75811275 2120.755287881 1097280.2576195 1866010009.4819
2650	37256151 21527 151835 157951 2442 3096 655 204.8270740814 2450.620920338 1372627.493371 3137042499.6634
2661	37277678 18553 151842 157981 2446 3125 680 0.78366536364818 20.3253052435 1225.8377952187 5163.2961895769
2660	37296231 20832 151842 157981 2446 3125 680 -2.5 2.8572726643336 4.4766742311312 445.02277274727
2659	37317063 20190 151841 157981 2445 3125 681 0 27.760094714148 3400.931543044 58909.942981044
2658	37337253 22416 151838 157981 2444 3125 682 1216.5044428613 2120.5740574431 1144752.7428279 1951625327.6241
2657	37359669 22377 151838 157981 2444 3125 682 206.84983192943 2450.2521547179 1439857.8689235 3297425874.8481
2668	37382046 18569 154354 157985 2448 3129 682 -0.62799050083652 19.263572373835 1216.8875098722 5034.4646178603
2667	37400615 20822 154354 157985 2448 3129 682 -2.5 2.7241814585108 5.3124212599384 410.77775892371
2666	37421437 20193 151844 157985 2447 3129 683 0 27.777737257873 3402.9663552938 58403.838208213
2665	37441630 22443 151842 157985 2446 3129 684 1217.6830413816 2120.5529280165 1143201.1437532 1938118376.7054
2664	37464073 22532 151842 157985 2446 3129 684 207.27731615014 2450.2990261036 1442483.6167452 3302260567.5029
2675	37486605 18645 154732 157989 2451 3133 683 0.973 21.514575013221 1204.3776959539 4973.3623667648
2674	37505250 20871 154732 157989 2451 3133 683 -2.5 2.8030569543917 6.5706634203921 390.14166325749
2673	37526121 20230 154731 157989 2450 3133 684 0 27.774706405142 3405.1654094945 57798.931226613
2672	37546351 22562 154729 157989 2449 3133 685 1218.1252908045 2120.4941429272 1143337.9483145 1935714866.2947
2671	37568913 22472 154729 157989 2449 3133 685 205.93469266396 2450.4482740167 1442214.2551896 3299804207.1754
2682	37591385 18689 154740 157993 2455 3137 683 0.27896170521632 18.446554873712 1189.1153437772 4734.3884665249
2681	37610074 20902 154740 157993 2455 3137 683 -2.5 2.8524356754264 8.7130784270571 345.41624798797
2680	37630976 20260 154739 157993 2454 3137 684 0 27.778627471117 3407.7596719776 58207.653526551
2679	37651236 22568 154736 157993 2453 3137 685 1219.1398099121 2120.7023847718 1141192.0740718 1927842844.917
2678	37673804 22570 154736 157993 2453 3137 685 204.28403781902 2450.5920843827 1440221.9392071 3294343946.2405
2689	37696374 16728 155534 158055 2584 3199 616 0.973 20.303618838914 1199.355075478 6104.2462932415
2688	37713102 18465 155534 158055 2584 3199 616 -2.5 2.9594206162565 2.9621019052181 498.05268079725
2687	37731567 17931 155533 158055 2583 3199 617 0 27.770397001988 3398.0608945179 58176.07028383
2686	37749498 20267 155532 158055 2582 3199 618 1216.5799304992 2120.3988542473 1052314.7140156 1821605311.8594
2685	37769765 20362 155532 158055 2582 3199 618 206.88684649044 2450.6426855252 1269140.7291156 2850714574.9959
2703	37790127 17055 155544 158071 2588 3215 628 0.973 18.878674415597 1199.2308180517 5977.9609074536
2702	37807182 18918 155544 158071 2588 3215 628 -2.473105740957 2.874173691913 4.3112299433262 429.06123872006
2701	37826100 18325 155540 158071 2587 3215 629 0 27.76812321941 3405.7481582827 58983.475571112
2700	37844425 20756 155538 158071 2586 3215 630 1218.4990297295 2120.966271136 1053946.9376879 1786870080.9462
2699	37865181 20667 155538 158071 2586 3215 630 204.39611420361 2450.5842961842 1306769.7266542 2961959047.0012
2710	37885848 17111 155549 158076 2590 3220 631 0.973 20.534837388034 1191.7971069756 5930.4220397701
2709	37902959 19024 155549 158076 2590 3220 631 -2.5 2.9193689999625 3.3067081795033 412.72830894965
2708	37921983 18440 155545 158076 2589 3220 632 0 27.770785150278 3401.5349199341 58649.446683006
2707	37940423 20850 155544 158076 2588 3220 633 1217.1671479987 2120.5357778864 1053767.6028889 1776668108.0788
2706	37961273 20800 155544 158076 2588 3220 633 206.43421847268 2450.6553788872 1312233.1933416 2969444405.8548
2696	37982073 17503 155538 158084 2586 3228 643 -0.34740023512185 18.960125661301 1254.3425596645 6409.4701249172
2695	37999576 19479 155538 158084 2586 3228 643 -2.5 2.7337495355352 4.3170232188199 545.20243405894
2694	38019055 19035 155536 158084 2585 3228 644 0 27.771113698935 3405.4066614278 56424.250817663
2693	38038090 21198 155534 158084 2584 3228 645 1216.937207018 2120.7003816301 1088732.9097648 1863546252.7934
2692	38059288 21253 155534 158084 2584 3228 645 204.97314799856 2450.6192892484 1321088.1339197 2955064488.7718
2717	38080541 18028 155551 158113 2592 3257 666 0.973 19.737285478028 1197.450815269 4971.6553330574
2716	38098569 20367 155551 158113 2592 3257 666 -2.5 2.7388071064548 3.5174045285018 392.17113709491
2715	38118936 19735 155550 158113 2591 3257 667 0 27.763867056943 3401.5610011757 60076.210835376
2714	38138671 22010 155549 158113 2590 3257 668 1216.8576129507 2120.6945203673 1112478.9362511 1875763195.5948
2713	38160681 21960 155549 158113 2590 3257 668 206.84893460223 2450.5949020934 1396666.0502739 3170839559.4603
2724	38182641 18211 155555 158118 2594 3262 669 0.973 17.81337272975 1201.2771242319 4880.8793292359
2723	38200852 20467 155555 158118 2594 3262 669 -2.5 2.7579249440122 5.0375774836735 394.15406251722
2722	38221319 19892 155553 158118 2593 3262 670 0 27.776738430267 3407.357983004 59252.084389231
2721	38241211 22115 155551 158118 2592 3262 671 1217.9049573066 2120.8463628581 1114554.6828643 1873881575.8313
2720	38263326 22092 155551 158118 2592 3262 671 204.32917601627 2450.5111849202 1399833.3894792 3176081455.1535
2731	38285418 18361 155558 158122 2596 3266 671 0.973 18.100509888982 1193.8296111091 4942.3130808494
2730	38303779 20532 155558 158122 2596 3266 671 -2.5 2.7849214786082 4.6893192517479 361.37402098157
2729	38324311 19891 155557 158122 2595 3266 672 0 27.77610621748 3406.0767672911 59583.912218494
2728	38344202 22158 155555 158122 2594 3266 673 1217.0297878254 2120.5721938759 1114995.0836096 1869358810.9861
2727	38366360 22072 155555 158122 2594 3266 673 204.77881992504 2450.241863278 1404824.4568905 3187971551.6511
