file 30801163 1482252249                                        
version 2
run debug-0-20161220-17:41:15-2675
attr configname debug
attr datetime 20161220-17:41:15
attr experiment debug
attr inifile omnetpp.ini
attr iterationvars ""
attr iterationvars2 $repetition=0
attr measurement ""
attr network RSUExampleScenario
attr processid 2675
attr repetition 0
attr replication #0
attr resultdir results
attr runnumber 0
attr seedset 0
param **.coreDebug false
param **.debug false
param *.**.nic.mac1609_4.bitrate 27Mbps
param *.**.nic.mac1609_4.txPower 20mW
param *.**.nic.mac1609_4.useServiceChannel false
param *.**.nic.phy80211p.analogueModels "xmldoc(\"config.xml\")"
param *.**.nic.phy80211p.decider "xmldoc(\"config.xml\")"
param *.**.nic.phy80211p.sensitivity -89dBm
param *.**.nic.phy80211p.thermalNoise -110dBm
param *.**.nic.phy80211p.usePropagationDelay true
param *.**.nic.phy80211p.useThermalNoise true
param *.annotations.draw false
param *.connectionManager.alpha 2.0
param *.connectionManager.carrierFrequency "5.890e9 Hz"
param *.connectionManager.pMax 20mW
param *.connectionManager.sat -89dBm
param *.connectionManager.sendDirect true
param *.manager.autoShutdown true
param *.manager.host "\"localhost\""
param *.manager.launchConfig "xmldoc(\"erlangen.launchd.xml\")"
param *.manager.margin 25
param *.manager.moduleDisplayString "\"\""
param *.manager.moduleName "\"node\""
param *.manager.moduleType "\"org.car2x.veins.nodes.Car\""
param *.manager.port 9999
param *.manager.updateInterval 1s
param *.node[*].appl.beaconInterval 1s
param *.node[*].appl.beaconPriority 3
param *.node[*].appl.dataOnSch false
param *.node[*].appl.dataPriority 2
param *.node[*].appl.debug false
param *.node[*].appl.headerLength "256 bit"
param *.node[*].appl.maxOffset 0.005s
param *.node[*].appl.sendBeacons false
param *.node[*].appl.sendData true
param *.node[*].applType "\"TraCIDemo11p\""
param *.node[*].mobilityType "\"TraCIMobility\""
param *.node[*].mobilityType.debug true
param *.node[*].veinsmobility.accidentCount 5
param *.node[*].veinsmobility.accidentDuration 43s
param *.node[*].veinsmobility.accidentStart 85s
param *.node[*].veinsmobility.x 0
param *.node[*].veinsmobility.y 0
param *.node[*].veinsmobility.z 1.895
param *.node[*].veinsmobilityType "\"org.car2x.veins.modules.mobility.traci.TraCIMobility\""
param *.node[*].veinsmobilityType.debug true
param *.obstacles.debug false
param *.obstacles.obstacles "xmldoc(\"config.xml\", \"//AnalogueModel[@type='SimpleObstacleShadowing']/obstacles\")"
param *.playgroundSizeX 2500m
param *.playgroundSizeY 2500m
param *.playgroundSizeZ 50m
param *.rsu[*].appl.beaconInterval 1s
param *.rsu[*].appl.beaconPriority 3
param *.rsu[*].appl.dataOnSch false
param *.rsu[*].appl.dataPriority 2
param *.rsu[*].appl.debug false
param *.rsu[*].appl.headerLength "256 bit"
param *.rsu[*].appl.maxOffset 0.005s
param *.rsu[*].appl.sendBeacons false
param *.rsu[*].appl.sendData true
param *.rsu[*].applType "\"TraCIDemoRSU11p\""
param *.rsu[0].mobility.x 2000
param *.rsu[0].mobility.y 2000
param *.rsu[0].mobility.z 3
param *.world.use2D false
param *.world.useTorus false

vector 4  RSUExampleScenario.node[0].veinsmobility  posx  ETV
vector 5  RSUExampleScenario.node[0].veinsmobility  posy  ETV
vector 6  RSUExampleScenario.node[0].veinsmobility  speed  ETV
vector 11  RSUExampleScenario.node[1].veinsmobility  posx  ETV
vector 12  RSUExampleScenario.node[1].veinsmobility  posy  ETV
vector 7  RSUExampleScenario.node[0].veinsmobility  acceleration  ETV
vector 8  RSUExampleScenario.node[0].veinsmobility  co2emission  ETV
vector 13  RSUExampleScenario.node[1].veinsmobility  speed  ETV
vector 18  RSUExampleScenario.node[2].veinsmobility  posx  ETV
vector 19  RSUExampleScenario.node[2].veinsmobility  posy  ETV
vector 14  RSUExampleScenario.node[1].veinsmobility  acceleration  ETV
vector 15  RSUExampleScenario.node[1].veinsmobility  co2emission  ETV
vector 20  RSUExampleScenario.node[2].veinsmobility  speed  ETV
vector 25  RSUExampleScenario.node[3].veinsmobility  posx  ETV
vector 26  RSUExampleScenario.node[3].veinsmobility  posy  ETV
vector 21  RSUExampleScenario.node[2].veinsmobility  acceleration  ETV
vector 22  RSUExampleScenario.node[2].veinsmobility  co2emission  ETV
vector 32  RSUExampleScenario.node[4].veinsmobility  posx  ETV
vector 33  RSUExampleScenario.node[4].veinsmobility  posy  ETV
vector 27  RSUExampleScenario.node[3].veinsmobility  speed  ETV
vector 28  RSUExampleScenario.node[3].veinsmobility  acceleration  ETV
vector 29  RSUExampleScenario.node[3].veinsmobility  co2emission  ETV
vector 34  RSUExampleScenario.node[4].veinsmobility  speed  ETV
vector 39  RSUExampleScenario.node[5].veinsmobility  posx  ETV
vector 40  RSUExampleScenario.node[5].veinsmobility  posy  ETV
vector 35  RSUExampleScenario.node[4].veinsmobility  acceleration  ETV
vector 36  RSUExampleScenario.node[4].veinsmobility  co2emission  ETV
vector 41  RSUExampleScenario.node[5].veinsmobility  speed  ETV
vector 46  RSUExampleScenario.node[6].veinsmobility  posx  ETV
vector 47  RSUExampleScenario.node[6].veinsmobility  posy  ETV
vector 42  RSUExampleScenario.node[5].veinsmobility  acceleration  ETV
vector 43  RSUExampleScenario.node[5].veinsmobility  co2emission  ETV
vector 48  RSUExampleScenario.node[6].veinsmobility  speed  ETV
vector 53  RSUExampleScenario.node[7].veinsmobility  posx  ETV
vector 54  RSUExampleScenario.node[7].veinsmobility  posy  ETV
vector 49  RSUExampleScenario.node[6].veinsmobility  acceleration  ETV
vector 50  RSUExampleScenario.node[6].veinsmobility  co2emission  ETV
vector 55  RSUExampleScenario.node[7].veinsmobility  speed  ETV
vector 60  RSUExampleScenario.node[8].veinsmobility  posx  ETV
vector 61  RSUExampleScenario.node[8].veinsmobility  posy  ETV
vector 56  RSUExampleScenario.node[7].veinsmobility  acceleration  ETV
vector 57  RSUExampleScenario.node[7].veinsmobility  co2emission  ETV
vector 67  RSUExampleScenario.node[9].veinsmobility  posx  ETV
vector 68  RSUExampleScenario.node[9].veinsmobility  posy  ETV
vector 62  RSUExampleScenario.node[8].veinsmobility  speed  ETV
vector 63  RSUExampleScenario.node[8].veinsmobility  acceleration  ETV
vector 64  RSUExampleScenario.node[8].veinsmobility  co2emission  ETV
vector 69  RSUExampleScenario.node[9].veinsmobility  speed  ETV
vector 74  RSUExampleScenario.node[10].veinsmobility  posx  ETV
vector 75  RSUExampleScenario.node[10].veinsmobility  posy  ETV
vector 70  RSUExampleScenario.node[9].veinsmobility  acceleration  ETV
vector 71  RSUExampleScenario.node[9].veinsmobility  co2emission  ETV
vector 81  RSUExampleScenario.node[11].veinsmobility  posx  ETV
vector 82  RSUExampleScenario.node[11].veinsmobility  posy  ETV
vector 76  RSUExampleScenario.node[10].veinsmobility  speed  ETV
vector 77  RSUExampleScenario.node[10].veinsmobility  acceleration  ETV
vector 78  RSUExampleScenario.node[10].veinsmobility  co2emission  ETV
vector 83  RSUExampleScenario.node[11].veinsmobility  speed  ETV
vector 84  RSUExampleScenario.node[11].veinsmobility  acceleration  ETV
vector 85  RSUExampleScenario.node[11].veinsmobility  co2emission  ETV
vector 88  RSUExampleScenario.node[12].veinsmobility  posx  ETV
vector 89  RSUExampleScenario.node[12].veinsmobility  posy  ETV
vector 90  RSUExampleScenario.node[12].veinsmobility  speed  ETV
vector 95  RSUExampleScenario.node[13].veinsmobility  posx  ETV
vector 96  RSUExampleScenario.node[13].veinsmobility  posy  ETV
vector 91  RSUExampleScenario.node[12].veinsmobility  acceleration  ETV
vector 92  RSUExampleScenario.node[12].veinsmobility  co2emission  ETV
vector 97  RSUExampleScenario.node[13].veinsmobility  speed  ETV
vector 102  RSUExampleScenario.node[14].veinsmobility  posx  ETV
vector 103  RSUExampleScenario.node[14].veinsmobility  posy  ETV
vector 98  RSUExampleScenario.node[13].veinsmobility  acceleration  ETV
vector 99  RSUExampleScenario.node[13].veinsmobility  co2emission  ETV
vector 109  RSUExampleScenario.node[15].veinsmobility  posx  ETV
vector 110  RSUExampleScenario.node[15].veinsmobility  posy  ETV
vector 104  RSUExampleScenario.node[14].veinsmobility  speed  ETV
vector 105  RSUExampleScenario.node[14].veinsmobility  acceleration  ETV
vector 106  RSUExampleScenario.node[14].veinsmobility  co2emission  ETV
vector 111  RSUExampleScenario.node[15].veinsmobility  speed  ETV
vector 116  RSUExampleScenario.node[16].veinsmobility  posx  ETV
vector 117  RSUExampleScenario.node[16].veinsmobility  posy  ETV
vector 112  RSUExampleScenario.node[15].veinsmobility  acceleration  ETV
vector 113  RSUExampleScenario.node[15].veinsmobility  co2emission  ETV
vector 123  RSUExampleScenario.node[17].veinsmobility  posx  ETV
vector 124  RSUExampleScenario.node[17].veinsmobility  posy  ETV
vector 118  RSUExampleScenario.node[16].veinsmobility  speed  ETV
vector 119  RSUExampleScenario.node[16].veinsmobility  acceleration  ETV
vector 120  RSUExampleScenario.node[16].veinsmobility  co2emission  ETV
vector 125  RSUExampleScenario.node[17].veinsmobility  speed  ETV
vector 130  RSUExampleScenario.node[18].veinsmobility  posx  ETV
vector 131  RSUExampleScenario.node[18].veinsmobility  posy  ETV
vector 126  RSUExampleScenario.node[17].veinsmobility  acceleration  ETV
vector 127  RSUExampleScenario.node[17].veinsmobility  co2emission  ETV
vector 137  RSUExampleScenario.node[19].veinsmobility  posx  ETV
vector 138  RSUExampleScenario.node[19].veinsmobility  posy  ETV
vector 132  RSUExampleScenario.node[18].veinsmobility  speed  ETV
vector 133  RSUExampleScenario.node[18].veinsmobility  acceleration  ETV
vector 134  RSUExampleScenario.node[18].veinsmobility  co2emission  ETV
vector 139  RSUExampleScenario.node[19].veinsmobility  speed  ETV
vector 144  RSUExampleScenario.node[20].veinsmobility  posx  ETV
vector 145  RSUExampleScenario.node[20].veinsmobility  posy  ETV
vector 140  RSUExampleScenario.node[19].veinsmobility  acceleration  ETV
vector 141  RSUExampleScenario.node[19].veinsmobility  co2emission  ETV
vector 151  RSUExampleScenario.node[21].veinsmobility  posx  ETV
vector 152  RSUExampleScenario.node[21].veinsmobility  posy  ETV
vector 146  RSUExampleScenario.node[20].veinsmobility  speed  ETV
vector 147  RSUExampleScenario.node[20].veinsmobility  acceleration  ETV
vector 148  RSUExampleScenario.node[20].veinsmobility  co2emission  ETV
vector 153  RSUExampleScenario.node[21].veinsmobility  speed  ETV
vector 158  RSUExampleScenario.node[22].veinsmobility  posx  ETV
vector 159  RSUExampleScenario.node[22].veinsmobility  posy  ETV
vector 154  RSUExampleScenario.node[21].veinsmobility  acceleration  ETV
vector 155  RSUExampleScenario.node[21].veinsmobility  co2emission  ETV
vector 160  RSUExampleScenario.node[22].veinsmobility  speed  ETV
vector 161  RSUExampleScenario.node[22].veinsmobility  acceleration  ETV
vector 162  RSUExampleScenario.node[22].veinsmobility  co2emission  ETV
vector 165  RSUExampleScenario.node[23].veinsmobility  posx  ETV
vector 166  RSUExampleScenario.node[23].veinsmobility  posy  ETV
vector 167  RSUExampleScenario.node[23].veinsmobility  speed  ETV
vector 172  RSUExampleScenario.node[24].veinsmobility  posx  ETV
vector 173  RSUExampleScenario.node[24].veinsmobility  posy  ETV
vector 168  RSUExampleScenario.node[23].veinsmobility  acceleration  ETV
vector 169  RSUExampleScenario.node[23].veinsmobility  co2emission  ETV
vector 174  RSUExampleScenario.node[24].veinsmobility  speed  ETV
vector 179  RSUExampleScenario.node[25].veinsmobility  posx  ETV
vector 180  RSUExampleScenario.node[25].veinsmobility  posy  ETV
vector 175  RSUExampleScenario.node[24].veinsmobility  acceleration  ETV
vector 176  RSUExampleScenario.node[24].veinsmobility  co2emission  ETV
vector 181  RSUExampleScenario.node[25].veinsmobility  speed  ETV
vector 186  RSUExampleScenario.node[26].veinsmobility  posx  ETV
vector 187  RSUExampleScenario.node[26].veinsmobility  posy  ETV
vector 182  RSUExampleScenario.node[25].veinsmobility  acceleration  ETV
vector 183  RSUExampleScenario.node[25].veinsmobility  co2emission  ETV
vector 193  RSUExampleScenario.node[27].veinsmobility  posx  ETV
vector 194  RSUExampleScenario.node[27].veinsmobility  posy  ETV
vector 188  RSUExampleScenario.node[26].veinsmobility  speed  ETV
vector 189  RSUExampleScenario.node[26].veinsmobility  acceleration  ETV
vector 190  RSUExampleScenario.node[26].veinsmobility  co2emission  ETV
vector 195  RSUExampleScenario.node[27].veinsmobility  speed  ETV
vector 200  RSUExampleScenario.node[28].veinsmobility  posx  ETV
vector 201  RSUExampleScenario.node[28].veinsmobility  posy  ETV
vector 196  RSUExampleScenario.node[27].veinsmobility  acceleration  ETV
vector 197  RSUExampleScenario.node[27].veinsmobility  co2emission  ETV
vector 202  RSUExampleScenario.node[28].veinsmobility  speed  ETV
vector 207  RSUExampleScenario.node[29].veinsmobility  posx  ETV
vector 208  RSUExampleScenario.node[29].veinsmobility  posy  ETV
vector 203  RSUExampleScenario.node[28].veinsmobility  acceleration  ETV
vector 204  RSUExampleScenario.node[28].veinsmobility  co2emission  ETV
vector 209  RSUExampleScenario.node[29].veinsmobility  speed  ETV
vector 214  RSUExampleScenario.node[30].veinsmobility  posx  ETV
vector 215  RSUExampleScenario.node[30].veinsmobility  posy  ETV
vector 210  RSUExampleScenario.node[29].veinsmobility  acceleration  ETV
vector 211  RSUExampleScenario.node[29].veinsmobility  co2emission  ETV
vector 221  RSUExampleScenario.node[31].veinsmobility  posx  ETV
vector 222  RSUExampleScenario.node[31].veinsmobility  posy  ETV
vector 216  RSUExampleScenario.node[30].veinsmobility  speed  ETV
vector 217  RSUExampleScenario.node[30].veinsmobility  acceleration  ETV
vector 218  RSUExampleScenario.node[30].veinsmobility  co2emission  ETV
vector 223  RSUExampleScenario.node[31].veinsmobility  speed  ETV
vector 228  RSUExampleScenario.node[32].veinsmobility  posx  ETV
vector 229  RSUExampleScenario.node[32].veinsmobility  posy  ETV
vector 224  RSUExampleScenario.node[31].veinsmobility  acceleration  ETV
vector 225  RSUExampleScenario.node[31].veinsmobility  co2emission  ETV
vector 230  RSUExampleScenario.node[32].veinsmobility  speed  ETV
vector 235  RSUExampleScenario.node[33].veinsmobility  posx  ETV
vector 236  RSUExampleScenario.node[33].veinsmobility  posy  ETV
vector 231  RSUExampleScenario.node[32].veinsmobility  acceleration  ETV
vector 232  RSUExampleScenario.node[32].veinsmobility  co2emission  ETV
vector 237  RSUExampleScenario.node[33].veinsmobility  speed  ETV
vector 242  RSUExampleScenario.node[34].veinsmobility  posx  ETV
vector 243  RSUExampleScenario.node[34].veinsmobility  posy  ETV
vector 238  RSUExampleScenario.node[33].veinsmobility  acceleration  ETV
vector 239  RSUExampleScenario.node[33].veinsmobility  co2emission  ETV
vector 244  RSUExampleScenario.node[34].veinsmobility  speed  ETV
vector 249  RSUExampleScenario.node[35].veinsmobility  posx  ETV
vector 250  RSUExampleScenario.node[35].veinsmobility  posy  ETV
vector 245  RSUExampleScenario.node[34].veinsmobility  acceleration  ETV
vector 246  RSUExampleScenario.node[34].veinsmobility  co2emission  ETV
vector 251  RSUExampleScenario.node[35].veinsmobility  speed  ETV
vector 256  RSUExampleScenario.node[36].veinsmobility  posx  ETV
vector 257  RSUExampleScenario.node[36].veinsmobility  posy  ETV
vector 252  RSUExampleScenario.node[35].veinsmobility  acceleration  ETV
vector 253  RSUExampleScenario.node[35].veinsmobility  co2emission  ETV
vector 258  RSUExampleScenario.node[36].veinsmobility  speed  ETV
vector 263  RSUExampleScenario.node[37].veinsmobility  posx  ETV
vector 264  RSUExampleScenario.node[37].veinsmobility  posy  ETV
vector 259  RSUExampleScenario.node[36].veinsmobility  acceleration  ETV
vector 260  RSUExampleScenario.node[36].veinsmobility  co2emission  ETV
vector 265  RSUExampleScenario.node[37].veinsmobility  speed  ETV
vector 270  RSUExampleScenario.node[38].veinsmobility  posx  ETV
vector 271  RSUExampleScenario.node[38].veinsmobility  posy  ETV
vector 266  RSUExampleScenario.node[37].veinsmobility  acceleration  ETV
vector 267  RSUExampleScenario.node[37].veinsmobility  co2emission  ETV
vector 272  RSUExampleScenario.node[38].veinsmobility  speed  ETV
vector 277  RSUExampleScenario.node[39].veinsmobility  posx  ETV
vector 278  RSUExampleScenario.node[39].veinsmobility  posy  ETV
vector 273  RSUExampleScenario.node[38].veinsmobility  acceleration  ETV
vector 274  RSUExampleScenario.node[38].veinsmobility  co2emission  ETV
vector 279  RSUExampleScenario.node[39].veinsmobility  speed  ETV
vector 284  RSUExampleScenario.node[40].veinsmobility  posx  ETV
vector 285  RSUExampleScenario.node[40].veinsmobility  posy  ETV
vector 280  RSUExampleScenario.node[39].veinsmobility  acceleration  ETV
vector 281  RSUExampleScenario.node[39].veinsmobility  co2emission  ETV
vector 286  RSUExampleScenario.node[40].veinsmobility  speed  ETV
vector 291  RSUExampleScenario.node[41].veinsmobility  posx  ETV
vector 292  RSUExampleScenario.node[41].veinsmobility  posy  ETV
vector 287  RSUExampleScenario.node[40].veinsmobility  acceleration  ETV
vector 288  RSUExampleScenario.node[40].veinsmobility  co2emission  ETV
vector 293  RSUExampleScenario.node[41].veinsmobility  speed  ETV
vector 298  RSUExampleScenario.node[42].veinsmobility  posx  ETV
vector 299  RSUExampleScenario.node[42].veinsmobility  posy  ETV
vector 294  RSUExampleScenario.node[41].veinsmobility  acceleration  ETV
vector 295  RSUExampleScenario.node[41].veinsmobility  co2emission  ETV
vector 300  RSUExampleScenario.node[42].veinsmobility  speed  ETV
vector 305  RSUExampleScenario.node[43].veinsmobility  posx  ETV
vector 306  RSUExampleScenario.node[43].veinsmobility  posy  ETV
vector 301  RSUExampleScenario.node[42].veinsmobility  acceleration  ETV
vector 302  RSUExampleScenario.node[42].veinsmobility  co2emission  ETV
vector 307  RSUExampleScenario.node[43].veinsmobility  speed  ETV
vector 308  RSUExampleScenario.node[43].veinsmobility  acceleration  ETV
vector 309  RSUExampleScenario.node[43].veinsmobility  co2emission  ETV
vector 312  RSUExampleScenario.node[44].veinsmobility  posx  ETV
vector 313  RSUExampleScenario.node[44].veinsmobility  posy  ETV
vector 314  RSUExampleScenario.node[44].veinsmobility  speed  ETV
vector 315  RSUExampleScenario.node[44].veinsmobility  acceleration  ETV
vector 316  RSUExampleScenario.node[44].veinsmobility  co2emission  ETV
vector 319  RSUExampleScenario.node[45].veinsmobility  posx  ETV
vector 320  RSUExampleScenario.node[45].veinsmobility  posy  ETV
vector 321  RSUExampleScenario.node[45].veinsmobility  speed  ETV
vector 326  RSUExampleScenario.node[46].veinsmobility  posx  ETV
vector 327  RSUExampleScenario.node[46].veinsmobility  posy  ETV
vector 322  RSUExampleScenario.node[45].veinsmobility  acceleration  ETV
vector 323  RSUExampleScenario.node[45].veinsmobility  co2emission  ETV
vector 328  RSUExampleScenario.node[46].veinsmobility  speed  ETV
vector 329  RSUExampleScenario.node[46].veinsmobility  acceleration  ETV
vector 330  RSUExampleScenario.node[46].veinsmobility  co2emission  ETV
vector 333  RSUExampleScenario.node[47].veinsmobility  posx  ETV
vector 334  RSUExampleScenario.node[47].veinsmobility  posy  ETV
vector 335  RSUExampleScenario.node[47].veinsmobility  speed  ETV
vector 340  RSUExampleScenario.node[48].veinsmobility  posx  ETV
vector 341  RSUExampleScenario.node[48].veinsmobility  posy  ETV
vector 336  RSUExampleScenario.node[47].veinsmobility  acceleration  ETV
vector 337  RSUExampleScenario.node[47].veinsmobility  co2emission  ETV
vector 342  RSUExampleScenario.node[48].veinsmobility  speed  ETV
vector 347  RSUExampleScenario.node[49].veinsmobility  posx  ETV
vector 348  RSUExampleScenario.node[49].veinsmobility  posy  ETV
vector 343  RSUExampleScenario.node[48].veinsmobility  acceleration  ETV
vector 344  RSUExampleScenario.node[48].veinsmobility  co2emission  ETV
vector 349  RSUExampleScenario.node[49].veinsmobility  speed  ETV
vector 354  RSUExampleScenario.node[50].veinsmobility  posx  ETV
vector 355  RSUExampleScenario.node[50].veinsmobility  posy  ETV
vector 350  RSUExampleScenario.node[49].veinsmobility  acceleration  ETV
vector 351  RSUExampleScenario.node[49].veinsmobility  co2emission  ETV
vector 356  RSUExampleScenario.node[50].veinsmobility  speed  ETV
vector 361  RSUExampleScenario.node[51].veinsmobility  posx  ETV
vector 362  RSUExampleScenario.node[51].veinsmobility  posy  ETV
vector 357  RSUExampleScenario.node[50].veinsmobility  acceleration  ETV
vector 358  RSUExampleScenario.node[50].veinsmobility  co2emission  ETV
vector 363  RSUExampleScenario.node[51].veinsmobility  speed  ETV
vector 368  RSUExampleScenario.node[52].veinsmobility  posx  ETV
vector 369  RSUExampleScenario.node[52].veinsmobility  posy  ETV
vector 364  RSUExampleScenario.node[51].veinsmobility  acceleration  ETV
vector 365  RSUExampleScenario.node[51].veinsmobility  co2emission  ETV
vector 370  RSUExampleScenario.node[52].veinsmobility  speed  ETV
vector 371  RSUExampleScenario.node[52].veinsmobility  acceleration  ETV
vector 372  RSUExampleScenario.node[52].veinsmobility  co2emission  ETV
vector 375  RSUExampleScenario.node[53].veinsmobility  posx  ETV
vector 376  RSUExampleScenario.node[53].veinsmobility  posy  ETV
vector 377  RSUExampleScenario.node[53].veinsmobility  speed  ETV
vector 382  RSUExampleScenario.node[54].veinsmobility  posx  ETV
vector 383  RSUExampleScenario.node[54].veinsmobility  posy  ETV
vector 378  RSUExampleScenario.node[53].veinsmobility  acceleration  ETV
vector 379  RSUExampleScenario.node[53].veinsmobility  co2emission  ETV
vector 384  RSUExampleScenario.node[54].veinsmobility  speed  ETV
vector 389  RSUExampleScenario.node[55].veinsmobility  posx  ETV
vector 390  RSUExampleScenario.node[55].veinsmobility  posy  ETV
vector 385  RSUExampleScenario.node[54].veinsmobility  acceleration  ETV
vector 386  RSUExampleScenario.node[54].veinsmobility  co2emission  ETV
vector 391  RSUExampleScenario.node[55].veinsmobility  speed  ETV
vector 396  RSUExampleScenario.node[56].veinsmobility  posx  ETV
vector 397  RSUExampleScenario.node[56].veinsmobility  posy  ETV
vector 392  RSUExampleScenario.node[55].veinsmobility  acceleration  ETV
vector 393  RSUExampleScenario.node[55].veinsmobility  co2emission  ETV
vector 398  RSUExampleScenario.node[56].veinsmobility  speed  ETV
vector 403  RSUExampleScenario.node[57].veinsmobility  posx  ETV
vector 404  RSUExampleScenario.node[57].veinsmobility  posy  ETV
vector 399  RSUExampleScenario.node[56].veinsmobility  acceleration  ETV
vector 400  RSUExampleScenario.node[56].veinsmobility  co2emission  ETV
vector 405  RSUExampleScenario.node[57].veinsmobility  speed  ETV
vector 406  RSUExampleScenario.node[57].veinsmobility  acceleration  ETV
vector 407  RSUExampleScenario.node[57].veinsmobility  co2emission  ETV
vector 410  RSUExampleScenario.node[58].veinsmobility  posx  ETV
vector 411  RSUExampleScenario.node[58].veinsmobility  posy  ETV
vector 412  RSUExampleScenario.node[58].veinsmobility  speed  ETV
vector 417  RSUExampleScenario.node[59].veinsmobility  posx  ETV
vector 418  RSUExampleScenario.node[59].veinsmobility  posy  ETV
vector 413  RSUExampleScenario.node[58].veinsmobility  acceleration  ETV
vector 414  RSUExampleScenario.node[58].veinsmobility  co2emission  ETV
vector 419  RSUExampleScenario.node[59].veinsmobility  speed  ETV
vector 424  RSUExampleScenario.node[60].veinsmobility  posx  ETV
vector 425  RSUExampleScenario.node[60].veinsmobility  posy  ETV
vector 420  RSUExampleScenario.node[59].veinsmobility  acceleration  ETV
vector 421  RSUExampleScenario.node[59].veinsmobility  co2emission  ETV
vector 426  RSUExampleScenario.node[60].veinsmobility  speed  ETV
vector 427  RSUExampleScenario.node[60].veinsmobility  acceleration  ETV
vector 428  RSUExampleScenario.node[60].veinsmobility  co2emission  ETV
vector 431  RSUExampleScenario.node[61].veinsmobility  posx  ETV
vector 432  RSUExampleScenario.node[61].veinsmobility  posy  ETV
vector 433  RSUExampleScenario.node[61].veinsmobility  speed  ETV
vector 438  RSUExampleScenario.node[62].veinsmobility  posx  ETV
vector 439  RSUExampleScenario.node[62].veinsmobility  posy  ETV
vector 434  RSUExampleScenario.node[61].veinsmobility  acceleration  ETV
vector 435  RSUExampleScenario.node[61].veinsmobility  co2emission  ETV
vector 440  RSUExampleScenario.node[62].veinsmobility  speed  ETV
vector 445  RSUExampleScenario.node[63].veinsmobility  posx  ETV
vector 446  RSUExampleScenario.node[63].veinsmobility  posy  ETV
vector 441  RSUExampleScenario.node[62].veinsmobility  acceleration  ETV
vector 442  RSUExampleScenario.node[62].veinsmobility  co2emission  ETV
vector 447  RSUExampleScenario.node[63].veinsmobility  speed  ETV
vector 448  RSUExampleScenario.node[63].veinsmobility  acceleration  ETV
vector 449  RSUExampleScenario.node[63].veinsmobility  co2emission  ETV
vector 452  RSUExampleScenario.node[64].veinsmobility  posx  ETV
vector 453  RSUExampleScenario.node[64].veinsmobility  posy  ETV
vector 454  RSUExampleScenario.node[64].veinsmobility  speed  ETV
vector 459  RSUExampleScenario.node[65].veinsmobility  posx  ETV
vector 460  RSUExampleScenario.node[65].veinsmobility  posy  ETV
vector 455  RSUExampleScenario.node[64].veinsmobility  acceleration  ETV
vector 456  RSUExampleScenario.node[64].veinsmobility  co2emission  ETV
vector 461  RSUExampleScenario.node[65].veinsmobility  speed  ETV
vector 466  RSUExampleScenario.node[66].veinsmobility  posx  ETV
vector 467  RSUExampleScenario.node[66].veinsmobility  posy  ETV
vector 462  RSUExampleScenario.node[65].veinsmobility  acceleration  ETV
vector 463  RSUExampleScenario.node[65].veinsmobility  co2emission  ETV
vector 468  RSUExampleScenario.node[66].veinsmobility  speed  ETV
vector 469  RSUExampleScenario.node[66].veinsmobility  acceleration  ETV
vector 470  RSUExampleScenario.node[66].veinsmobility  co2emission  ETV
vector 473  RSUExampleScenario.node[67].veinsmobility  posx  ETV
vector 474  RSUExampleScenario.node[67].veinsmobility  posy  ETV
vector 475  RSUExampleScenario.node[67].veinsmobility  speed  ETV
vector 480  RSUExampleScenario.node[68].veinsmobility  posx  ETV
vector 481  RSUExampleScenario.node[68].veinsmobility  posy  ETV
vector 476  RSUExampleScenario.node[67].veinsmobility  acceleration  ETV
vector 477  RSUExampleScenario.node[67].veinsmobility  co2emission  ETV
vector 482  RSUExampleScenario.node[68].veinsmobility  speed  ETV
vector 487  RSUExampleScenario.node[69].veinsmobility  posx  ETV
vector 488  RSUExampleScenario.node[69].veinsmobility  posy  ETV
vector 483  RSUExampleScenario.node[68].veinsmobility  acceleration  ETV
vector 484  RSUExampleScenario.node[68].veinsmobility  co2emission  ETV
vector 489  RSUExampleScenario.node[69].veinsmobility  speed  ETV
vector 494  RSUExampleScenario.node[70].veinsmobility  posx  ETV
vector 495  RSUExampleScenario.node[70].veinsmobility  posy  ETV
vector 490  RSUExampleScenario.node[69].veinsmobility  acceleration  ETV
vector 491  RSUExampleScenario.node[69].veinsmobility  co2emission  ETV
vector 496  RSUExampleScenario.node[70].veinsmobility  speed  ETV
vector 497  RSUExampleScenario.node[70].veinsmobility  acceleration  ETV
vector 498  RSUExampleScenario.node[70].veinsmobility  co2emission  ETV
vector 501  RSUExampleScenario.node[71].veinsmobility  posx  ETV
vector 502  RSUExampleScenario.node[71].veinsmobility  posy  ETV
vector 503  RSUExampleScenario.node[71].veinsmobility  speed  ETV
vector 508  RSUExampleScenario.node[72].veinsmobility  posx  ETV
vector 509  RSUExampleScenario.node[72].veinsmobility  posy  ETV
vector 504  RSUExampleScenario.node[71].veinsmobility  acceleration  ETV
vector 505  RSUExampleScenario.node[71].veinsmobility  co2emission  ETV
vector 510  RSUExampleScenario.node[72].veinsmobility  speed  ETV
vector 515  RSUExampleScenario.node[73].veinsmobility  posx  ETV
vector 516  RSUExampleScenario.node[73].veinsmobility  posy  ETV
vector 511  RSUExampleScenario.node[72].veinsmobility  acceleration  ETV
vector 512  RSUExampleScenario.node[72].veinsmobility  co2emission  ETV
vector 517  RSUExampleScenario.node[73].veinsmobility  speed  ETV
vector 522  RSUExampleScenario.node[74].veinsmobility  posx  ETV
vector 523  RSUExampleScenario.node[74].veinsmobility  posy  ETV
vector 518  RSUExampleScenario.node[73].veinsmobility  acceleration  ETV
vector 519  RSUExampleScenario.node[73].veinsmobility  co2emission  ETV
vector 524  RSUExampleScenario.node[74].veinsmobility  speed  ETV
vector 525  RSUExampleScenario.node[74].veinsmobility  acceleration  ETV
vector 526  RSUExampleScenario.node[74].veinsmobility  co2emission  ETV
vector 529  RSUExampleScenario.node[75].veinsmobility  posx  ETV
vector 530  RSUExampleScenario.node[75].veinsmobility  posy  ETV
vector 531  RSUExampleScenario.node[75].veinsmobility  speed  ETV
vector 536  RSUExampleScenario.node[76].veinsmobility  posx  ETV
vector 537  RSUExampleScenario.node[76].veinsmobility  posy  ETV
vector 532  RSUExampleScenario.node[75].veinsmobility  acceleration  ETV
vector 533  RSUExampleScenario.node[75].veinsmobility  co2emission  ETV
vector 538  RSUExampleScenario.node[76].veinsmobility  speed  ETV
vector 543  RSUExampleScenario.node[77].veinsmobility  posx  ETV
vector 544  RSUExampleScenario.node[77].veinsmobility  posy  ETV
vector 539  RSUExampleScenario.node[76].veinsmobility  acceleration  ETV
vector 540  RSUExampleScenario.node[76].veinsmobility  co2emission  ETV
vector 545  RSUExampleScenario.node[77].veinsmobility  speed  ETV
vector 550  RSUExampleScenario.node[78].veinsmobility  posx  ETV
vector 551  RSUExampleScenario.node[78].veinsmobility  posy  ETV
vector 546  RSUExampleScenario.node[77].veinsmobility  acceleration  ETV
vector 547  RSUExampleScenario.node[77].veinsmobility  co2emission  ETV
vector 552  RSUExampleScenario.node[78].veinsmobility  speed  ETV
vector 553  RSUExampleScenario.node[78].veinsmobility  acceleration  ETV
vector 554  RSUExampleScenario.node[78].veinsmobility  co2emission  ETV
vector 557  RSUExampleScenario.node[79].veinsmobility  posx  ETV
vector 558  RSUExampleScenario.node[79].veinsmobility  posy  ETV
vector 559  RSUExampleScenario.node[79].veinsmobility  speed  ETV
vector 564  RSUExampleScenario.node[80].veinsmobility  posx  ETV
vector 565  RSUExampleScenario.node[80].veinsmobility  posy  ETV
vector 560  RSUExampleScenario.node[79].veinsmobility  acceleration  ETV
vector 561  RSUExampleScenario.node[79].veinsmobility  co2emission  ETV
vector 566  RSUExampleScenario.node[80].veinsmobility  speed  ETV
vector 567  RSUExampleScenario.node[80].veinsmobility  acceleration  ETV
vector 568  RSUExampleScenario.node[80].veinsmobility  co2emission  ETV
vector 571  RSUExampleScenario.node[81].veinsmobility  posx  ETV
vector 572  RSUExampleScenario.node[81].veinsmobility  posy  ETV
vector 573  RSUExampleScenario.node[81].veinsmobility  speed  ETV
vector 578  RSUExampleScenario.node[82].veinsmobility  posx  ETV
vector 579  RSUExampleScenario.node[82].veinsmobility  posy  ETV
vector 574  RSUExampleScenario.node[81].veinsmobility  acceleration  ETV
vector 575  RSUExampleScenario.node[81].veinsmobility  co2emission  ETV
vector 580  RSUExampleScenario.node[82].veinsmobility  speed  ETV
vector 585  RSUExampleScenario.node[83].veinsmobility  posx  ETV
vector 586  RSUExampleScenario.node[83].veinsmobility  posy  ETV
vector 581  RSUExampleScenario.node[82].veinsmobility  acceleration  ETV
vector 582  RSUExampleScenario.node[82].veinsmobility  co2emission  ETV
vector 587  RSUExampleScenario.node[83].veinsmobility  speed  ETV
vector 588  RSUExampleScenario.node[83].veinsmobility  acceleration  ETV
vector 589  RSUExampleScenario.node[83].veinsmobility  co2emission  ETV
vector 592  RSUExampleScenario.node[84].veinsmobility  posx  ETV
vector 593  RSUExampleScenario.node[84].veinsmobility  posy  ETV
vector 594  RSUExampleScenario.node[84].veinsmobility  speed  ETV
vector 599  RSUExampleScenario.node[85].veinsmobility  posx  ETV
vector 600  RSUExampleScenario.node[85].veinsmobility  posy  ETV
vector 595  RSUExampleScenario.node[84].veinsmobility  acceleration  ETV
vector 596  RSUExampleScenario.node[84].veinsmobility  co2emission  ETV
vector 601  RSUExampleScenario.node[85].veinsmobility  speed  ETV
vector 602  RSUExampleScenario.node[85].veinsmobility  acceleration  ETV
vector 603  RSUExampleScenario.node[85].veinsmobility  co2emission  ETV
vector 606  RSUExampleScenario.node[86].veinsmobility  posx  ETV
vector 607  RSUExampleScenario.node[86].veinsmobility  posy  ETV
vector 608  RSUExampleScenario.node[86].veinsmobility  speed  ETV
vector 613  RSUExampleScenario.node[87].veinsmobility  posx  ETV
vector 614  RSUExampleScenario.node[87].veinsmobility  posy  ETV
vector 609  RSUExampleScenario.node[86].veinsmobility  acceleration  ETV
vector 610  RSUExampleScenario.node[86].veinsmobility  co2emission  ETV
vector 615  RSUExampleScenario.node[87].veinsmobility  speed  ETV
vector 616  RSUExampleScenario.node[87].veinsmobility  acceleration  ETV
vector 617  RSUExampleScenario.node[87].veinsmobility  co2emission  ETV
vector 620  RSUExampleScenario.node[88].veinsmobility  posx  ETV
vector 621  RSUExampleScenario.node[88].veinsmobility  posy  ETV
vector 622  RSUExampleScenario.node[88].veinsmobility  speed  ETV
vector 627  RSUExampleScenario.node[89].veinsmobility  posx  ETV
vector 628  RSUExampleScenario.node[89].veinsmobility  posy  ETV
vector 623  RSUExampleScenario.node[88].veinsmobility  acceleration  ETV
vector 624  RSUExampleScenario.node[88].veinsmobility  co2emission  ETV
vector 629  RSUExampleScenario.node[89].veinsmobility  speed  ETV
vector 630  RSUExampleScenario.node[89].veinsmobility  acceleration  ETV
vector 631  RSUExampleScenario.node[89].veinsmobility  co2emission  ETV
vector 634  RSUExampleScenario.node[90].veinsmobility  posx  ETV
vector 635  RSUExampleScenario.node[90].veinsmobility  posy  ETV
vector 636  RSUExampleScenario.node[90].veinsmobility  speed  ETV
vector 641  RSUExampleScenario.node[91].veinsmobility  posx  ETV
vector 642  RSUExampleScenario.node[91].veinsmobility  posy  ETV
vector 637  RSUExampleScenario.node[90].veinsmobility  acceleration  ETV
vector 638  RSUExampleScenario.node[90].veinsmobility  co2emission  ETV
vector 643  RSUExampleScenario.node[91].veinsmobility  speed  ETV
vector 648  RSUExampleScenario.node[92].veinsmobility  posx  ETV
vector 649  RSUExampleScenario.node[92].veinsmobility  posy  ETV
vector 644  RSUExampleScenario.node[91].veinsmobility  acceleration  ETV
vector 645  RSUExampleScenario.node[91].veinsmobility  co2emission  ETV
vector 650  RSUExampleScenario.node[92].veinsmobility  speed  ETV
vector 651  RSUExampleScenario.node[92].veinsmobility  acceleration  ETV
vector 652  RSUExampleScenario.node[92].veinsmobility  co2emission  ETV
vector 655  RSUExampleScenario.node[93].veinsmobility  posx  ETV
vector 656  RSUExampleScenario.node[93].veinsmobility  posy  ETV
vector 657  RSUExampleScenario.node[93].veinsmobility  speed  ETV
vector 658  RSUExampleScenario.node[93].veinsmobility  acceleration  ETV
vector 659  RSUExampleScenario.node[93].veinsmobility  co2emission  ETV
vector 662  RSUExampleScenario.node[94].veinsmobility  posx  ETV
vector 663  RSUExampleScenario.node[94].veinsmobility  posy  ETV
vector 664  RSUExampleScenario.node[94].veinsmobility  speed  ETV
vector 665  RSUExampleScenario.node[94].veinsmobility  acceleration  ETV
vector 666  RSUExampleScenario.node[94].veinsmobility  co2emission  ETV
vector 669  RSUExampleScenario.node[95].veinsmobility  posx  ETV
vector 670  RSUExampleScenario.node[95].veinsmobility  posy  ETV
vector 671  RSUExampleScenario.node[95].veinsmobility  speed  ETV
vector 672  RSUExampleScenario.node[95].veinsmobility  acceleration  ETV
vector 673  RSUExampleScenario.node[95].veinsmobility  co2emission  ETV
vector 676  RSUExampleScenario.node[96].veinsmobility  posx  ETV
vector 677  RSUExampleScenario.node[96].veinsmobility  posy  ETV
vector 678  RSUExampleScenario.node[96].veinsmobility  speed  ETV
vector 683  RSUExampleScenario.node[97].veinsmobility  posx  ETV
vector 684  RSUExampleScenario.node[97].veinsmobility  posy  ETV
vector 679  RSUExampleScenario.node[96].veinsmobility  acceleration  ETV
vector 680  RSUExampleScenario.node[96].veinsmobility  co2emission  ETV
vector 685  RSUExampleScenario.node[97].veinsmobility  speed  ETV
vector 690  RSUExampleScenario.node[98].veinsmobility  posx  ETV
vector 691  RSUExampleScenario.node[98].veinsmobility  posy  ETV
vector 686  RSUExampleScenario.node[97].veinsmobility  acceleration  ETV
vector 687  RSUExampleScenario.node[97].veinsmobility  co2emission  ETV
vector 692  RSUExampleScenario.node[98].veinsmobility  speed  ETV
vector 697  RSUExampleScenario.node[99].veinsmobility  posx  ETV
vector 698  RSUExampleScenario.node[99].veinsmobility  posy  ETV
vector 693  RSUExampleScenario.node[98].veinsmobility  acceleration  ETV
vector 694  RSUExampleScenario.node[98].veinsmobility  co2emission  ETV
vector 699  RSUExampleScenario.node[99].veinsmobility  speed  ETV
vector 704  RSUExampleScenario.node[100].veinsmobility  posx  ETV
vector 705  RSUExampleScenario.node[100].veinsmobility  posy  ETV
vector 700  RSUExampleScenario.node[99].veinsmobility  acceleration  ETV
vector 701  RSUExampleScenario.node[99].veinsmobility  co2emission  ETV
vector 706  RSUExampleScenario.node[100].veinsmobility  speed  ETV
vector 707  RSUExampleScenario.node[100].veinsmobility  acceleration  ETV
vector 708  RSUExampleScenario.node[100].veinsmobility  co2emission  ETV
vector 711  RSUExampleScenario.node[101].veinsmobility  posx  ETV
vector 712  RSUExampleScenario.node[101].veinsmobility  posy  ETV
vector 713  RSUExampleScenario.node[101].veinsmobility  speed  ETV
vector 718  RSUExampleScenario.node[102].veinsmobility  posx  ETV
vector 719  RSUExampleScenario.node[102].veinsmobility  posy  ETV
vector 714  RSUExampleScenario.node[101].veinsmobility  acceleration  ETV
vector 715  RSUExampleScenario.node[101].veinsmobility  co2emission  ETV
vector 720  RSUExampleScenario.node[102].veinsmobility  speed  ETV
vector 725  RSUExampleScenario.node[103].veinsmobility  posx  ETV
vector 726  RSUExampleScenario.node[103].veinsmobility  posy  ETV
vector 721  RSUExampleScenario.node[102].veinsmobility  acceleration  ETV
vector 722  RSUExampleScenario.node[102].veinsmobility  co2emission  ETV
vector 727  RSUExampleScenario.node[103].veinsmobility  speed  ETV
vector 732  RSUExampleScenario.node[104].veinsmobility  posx  ETV
vector 733  RSUExampleScenario.node[104].veinsmobility  posy  ETV
vector 728  RSUExampleScenario.node[103].veinsmobility  acceleration  ETV
vector 729  RSUExampleScenario.node[103].veinsmobility  co2emission  ETV
vector 734  RSUExampleScenario.node[104].veinsmobility  speed  ETV
vector 739  RSUExampleScenario.node[105].veinsmobility  posx  ETV
vector 740  RSUExampleScenario.node[105].veinsmobility  posy  ETV
vector 735  RSUExampleScenario.node[104].veinsmobility  acceleration  ETV
vector 736  RSUExampleScenario.node[104].veinsmobility  co2emission  ETV
vector 741  RSUExampleScenario.node[105].veinsmobility  speed  ETV
vector 742  RSUExampleScenario.node[105].veinsmobility  acceleration  ETV
vector 743  RSUExampleScenario.node[105].veinsmobility  co2emission  ETV
vector 746  RSUExampleScenario.node[106].veinsmobility  posx  ETV
vector 747  RSUExampleScenario.node[106].veinsmobility  posy  ETV
vector 748  RSUExampleScenario.node[106].veinsmobility  speed  ETV
vector 753  RSUExampleScenario.node[107].veinsmobility  posx  ETV
vector 754  RSUExampleScenario.node[107].veinsmobility  posy  ETV
vector 749  RSUExampleScenario.node[106].veinsmobility  acceleration  ETV
vector 750  RSUExampleScenario.node[106].veinsmobility  co2emission  ETV
vector 755  RSUExampleScenario.node[107].veinsmobility  speed  ETV
vector 760  RSUExampleScenario.node[108].veinsmobility  posx  ETV
vector 761  RSUExampleScenario.node[108].veinsmobility  posy  ETV
vector 756  RSUExampleScenario.node[107].veinsmobility  acceleration  ETV
vector 757  RSUExampleScenario.node[107].veinsmobility  co2emission  ETV
vector 762  RSUExampleScenario.node[108].veinsmobility  speed  ETV
vector 767  RSUExampleScenario.node[109].veinsmobility  posx  ETV
vector 768  RSUExampleScenario.node[109].veinsmobility  posy  ETV
vector 763  RSUExampleScenario.node[108].veinsmobility  acceleration  ETV
vector 764  RSUExampleScenario.node[108].veinsmobility  co2emission  ETV
vector 769  RSUExampleScenario.node[109].veinsmobility  speed  ETV
vector 770  RSUExampleScenario.node[109].veinsmobility  acceleration  ETV
vector 771  RSUExampleScenario.node[109].veinsmobility  co2emission  ETV
vector 774  RSUExampleScenario.node[110].veinsmobility  posx  ETV
vector 775  RSUExampleScenario.node[110].veinsmobility  posy  ETV
vector 776  RSUExampleScenario.node[110].veinsmobility  speed  ETV
vector 781  RSUExampleScenario.node[111].veinsmobility  posx  ETV
vector 782  RSUExampleScenario.node[111].veinsmobility  posy  ETV
vector 777  RSUExampleScenario.node[110].veinsmobility  acceleration  ETV
vector 778  RSUExampleScenario.node[110].veinsmobility  co2emission  ETV
vector 783  RSUExampleScenario.node[111].veinsmobility  speed  ETV
vector 788  RSUExampleScenario.node[112].veinsmobility  posx  ETV
vector 789  RSUExampleScenario.node[112].veinsmobility  posy  ETV
vector 784  RSUExampleScenario.node[111].veinsmobility  acceleration  ETV
vector 785  RSUExampleScenario.node[111].veinsmobility  co2emission  ETV
vector 790  RSUExampleScenario.node[112].veinsmobility  speed  ETV
vector 795  RSUExampleScenario.node[113].veinsmobility  posx  ETV
vector 796  RSUExampleScenario.node[113].veinsmobility  posy  ETV
vector 791  RSUExampleScenario.node[112].veinsmobility  acceleration  ETV
vector 792  RSUExampleScenario.node[112].veinsmobility  co2emission  ETV
vector 797  RSUExampleScenario.node[113].veinsmobility  speed  ETV
vector 798  RSUExampleScenario.node[113].veinsmobility  acceleration  ETV
vector 799  RSUExampleScenario.node[113].veinsmobility  co2emission  ETV
vector 802  RSUExampleScenario.node[114].veinsmobility  posx  ETV
vector 803  RSUExampleScenario.node[114].veinsmobility  posy  ETV
vector 804  RSUExampleScenario.node[114].veinsmobility  speed  ETV
vector 809  RSUExampleScenario.node[115].veinsmobility  posx  ETV
vector 810  RSUExampleScenario.node[115].veinsmobility  posy  ETV
vector 805  RSUExampleScenario.node[114].veinsmobility  acceleration  ETV
vector 806  RSUExampleScenario.node[114].veinsmobility  co2emission  ETV
vector 811  RSUExampleScenario.node[115].veinsmobility  speed  ETV
vector 816  RSUExampleScenario.node[116].veinsmobility  posx  ETV
vector 817  RSUExampleScenario.node[116].veinsmobility  posy  ETV
vector 812  RSUExampleScenario.node[115].veinsmobility  acceleration  ETV
vector 813  RSUExampleScenario.node[115].veinsmobility  co2emission  ETV
vector 818  RSUExampleScenario.node[116].veinsmobility  speed  ETV
vector 823  RSUExampleScenario.node[117].veinsmobility  posx  ETV
vector 824  RSUExampleScenario.node[117].veinsmobility  posy  ETV
vector 819  RSUExampleScenario.node[116].veinsmobility  acceleration  ETV
vector 820  RSUExampleScenario.node[116].veinsmobility  co2emission  ETV
vector 825  RSUExampleScenario.node[117].veinsmobility  speed  ETV
vector 826  RSUExampleScenario.node[117].veinsmobility  acceleration  ETV
vector 827  RSUExampleScenario.node[117].veinsmobility  co2emission  ETV
vector 830  RSUExampleScenario.node[118].veinsmobility  posx  ETV
vector 831  RSUExampleScenario.node[118].veinsmobility  posy  ETV
vector 832  RSUExampleScenario.node[118].veinsmobility  speed  ETV
vector 837  RSUExampleScenario.node[119].veinsmobility  posx  ETV
vector 838  RSUExampleScenario.node[119].veinsmobility  posy  ETV
vector 833  RSUExampleScenario.node[118].veinsmobility  acceleration  ETV
vector 834  RSUExampleScenario.node[118].veinsmobility  co2emission  ETV
vector 839  RSUExampleScenario.node[119].veinsmobility  speed  ETV
vector 844  RSUExampleScenario.node[120].veinsmobility  posx  ETV
vector 845  RSUExampleScenario.node[120].veinsmobility  posy  ETV
vector 840  RSUExampleScenario.node[119].veinsmobility  acceleration  ETV
vector 841  RSUExampleScenario.node[119].veinsmobility  co2emission  ETV
vector 846  RSUExampleScenario.node[120].veinsmobility  speed  ETV
vector 847  RSUExampleScenario.node[120].veinsmobility  acceleration  ETV
vector 848  RSUExampleScenario.node[120].veinsmobility  co2emission  ETV
vector 851  RSUExampleScenario.node[121].veinsmobility  posx  ETV
vector 852  RSUExampleScenario.node[121].veinsmobility  posy  ETV
vector 853  RSUExampleScenario.node[121].veinsmobility  speed  ETV
vector 858  RSUExampleScenario.node[122].veinsmobility  posx  ETV
vector 859  RSUExampleScenario.node[122].veinsmobility  posy  ETV
vector 854  RSUExampleScenario.node[121].veinsmobility  acceleration  ETV
vector 855  RSUExampleScenario.node[121].veinsmobility  co2emission  ETV
vector 860  RSUExampleScenario.node[122].veinsmobility  speed  ETV
vector 861  RSUExampleScenario.node[122].veinsmobility  acceleration  ETV
vector 862  RSUExampleScenario.node[122].veinsmobility  co2emission  ETV
vector 865  RSUExampleScenario.node[123].veinsmobility  posx  ETV
vector 866  RSUExampleScenario.node[123].veinsmobility  posy  ETV
vector 867  RSUExampleScenario.node[123].veinsmobility  speed  ETV
vector 872  RSUExampleScenario.node[124].veinsmobility  posx  ETV
vector 873  RSUExampleScenario.node[124].veinsmobility  posy  ETV
vector 868  RSUExampleScenario.node[123].veinsmobility  acceleration  ETV
vector 869  RSUExampleScenario.node[123].veinsmobility  co2emission  ETV
vector 874  RSUExampleScenario.node[124].veinsmobility  speed  ETV
vector 875  RSUExampleScenario.node[124].veinsmobility  acceleration  ETV
vector 876  RSUExampleScenario.node[124].veinsmobility  co2emission  ETV
vector 879  RSUExampleScenario.node[125].veinsmobility  posx  ETV
vector 880  RSUExampleScenario.node[125].veinsmobility  posy  ETV
vector 881  RSUExampleScenario.node[125].veinsmobility  speed  ETV
vector 886  RSUExampleScenario.node[126].veinsmobility  posx  ETV
vector 887  RSUExampleScenario.node[126].veinsmobility  posy  ETV
vector 882  RSUExampleScenario.node[125].veinsmobility  acceleration  ETV
vector 883  RSUExampleScenario.node[125].veinsmobility  co2emission  ETV
vector 888  RSUExampleScenario.node[126].veinsmobility  speed  ETV
vector 889  RSUExampleScenario.node[126].veinsmobility  acceleration  ETV
vector 890  RSUExampleScenario.node[126].veinsmobility  co2emission  ETV
vector 893  RSUExampleScenario.node[127].veinsmobility  posx  ETV
vector 894  RSUExampleScenario.node[127].veinsmobility  posy  ETV
vector 895  RSUExampleScenario.node[127].veinsmobility  speed  ETV
vector 900  RSUExampleScenario.node[128].veinsmobility  posx  ETV
vector 901  RSUExampleScenario.node[128].veinsmobility  posy  ETV
vector 896  RSUExampleScenario.node[127].veinsmobility  acceleration  ETV
vector 897  RSUExampleScenario.node[127].veinsmobility  co2emission  ETV
vector 902  RSUExampleScenario.node[128].veinsmobility  speed  ETV
vector 903  RSUExampleScenario.node[128].veinsmobility  acceleration  ETV
vector 904  RSUExampleScenario.node[128].veinsmobility  co2emission  ETV
vector 907  RSUExampleScenario.node[129].veinsmobility  posx  ETV
vector 908  RSUExampleScenario.node[129].veinsmobility  posy  ETV
vector 909  RSUExampleScenario.node[129].veinsmobility  speed  ETV
vector 914  RSUExampleScenario.node[130].veinsmobility  posx  ETV
vector 915  RSUExampleScenario.node[130].veinsmobility  posy  ETV
vector 910  RSUExampleScenario.node[129].veinsmobility  acceleration  ETV
vector 911  RSUExampleScenario.node[129].veinsmobility  co2emission  ETV
vector 916  RSUExampleScenario.node[130].veinsmobility  speed  ETV
vector 917  RSUExampleScenario.node[130].veinsmobility  acceleration  ETV
vector 918  RSUExampleScenario.node[130].veinsmobility  co2emission  ETV
vector 921  RSUExampleScenario.node[131].veinsmobility  posx  ETV
vector 922  RSUExampleScenario.node[131].veinsmobility  posy  ETV
vector 923  RSUExampleScenario.node[131].veinsmobility  speed  ETV
vector 924  RSUExampleScenario.node[131].veinsmobility  acceleration  ETV
vector 925  RSUExampleScenario.node[131].veinsmobility  co2emission  ETV
vector 928  RSUExampleScenario.node[132].veinsmobility  posx  ETV
vector 929  RSUExampleScenario.node[132].veinsmobility  posy  ETV
vector 930  RSUExampleScenario.node[132].veinsmobility  speed  ETV
vector 935  RSUExampleScenario.node[133].veinsmobility  posx  ETV
vector 936  RSUExampleScenario.node[133].veinsmobility  posy  ETV
vector 931  RSUExampleScenario.node[132].veinsmobility  acceleration  ETV
vector 932  RSUExampleScenario.node[132].veinsmobility  co2emission  ETV
vector 937  RSUExampleScenario.node[133].veinsmobility  speed  ETV
vector 938  RSUExampleScenario.node[133].veinsmobility  acceleration  ETV
vector 939  RSUExampleScenario.node[133].veinsmobility  co2emission  ETV
vector 942  RSUExampleScenario.node[134].veinsmobility  posx  ETV
vector 943  RSUExampleScenario.node[134].veinsmobility  posy  ETV
vector 944  RSUExampleScenario.node[134].veinsmobility  speed  ETV
vector 949  RSUExampleScenario.node[135].veinsmobility  posx  ETV
vector 950  RSUExampleScenario.node[135].veinsmobility  posy  ETV
vector 945  RSUExampleScenario.node[134].veinsmobility  acceleration  ETV
vector 946  RSUExampleScenario.node[134].veinsmobility  co2emission  ETV
vector 951  RSUExampleScenario.node[135].veinsmobility  speed  ETV
vector 952  RSUExampleScenario.node[135].veinsmobility  acceleration  ETV
vector 953  RSUExampleScenario.node[135].veinsmobility  co2emission  ETV
vector 956  RSUExampleScenario.node[136].veinsmobility  posx  ETV
vector 957  RSUExampleScenario.node[136].veinsmobility  posy  ETV
vector 958  RSUExampleScenario.node[136].veinsmobility  speed  ETV
vector 959  RSUExampleScenario.node[136].veinsmobility  acceleration  ETV
vector 960  RSUExampleScenario.node[136].veinsmobility  co2emission  ETV
vector 963  RSUExampleScenario.node[137].veinsmobility  posx  ETV
vector 964  RSUExampleScenario.node[137].veinsmobility  posy  ETV
vector 965  RSUExampleScenario.node[137].veinsmobility  speed  ETV
vector 970  RSUExampleScenario.node[138].veinsmobility  posx  ETV
vector 971  RSUExampleScenario.node[138].veinsmobility  posy  ETV
vector 966  RSUExampleScenario.node[137].veinsmobility  acceleration  ETV
vector 967  RSUExampleScenario.node[137].veinsmobility  co2emission  ETV
vector 972  RSUExampleScenario.node[138].veinsmobility  speed  ETV
vector 973  RSUExampleScenario.node[138].veinsmobility  acceleration  ETV
vector 974  RSUExampleScenario.node[138].veinsmobility  co2emission  ETV
vector 977  RSUExampleScenario.node[139].veinsmobility  posx  ETV
vector 978  RSUExampleScenario.node[139].veinsmobility  posy  ETV
vector 979  RSUExampleScenario.node[139].veinsmobility  speed  ETV
vector 980  RSUExampleScenario.node[139].veinsmobility  acceleration  ETV
vector 981  RSUExampleScenario.node[139].veinsmobility  co2emission  ETV
vector 984  RSUExampleScenario.node[140].veinsmobility  posx  ETV
vector 985  RSUExampleScenario.node[140].veinsmobility  posy  ETV
vector 986  RSUExampleScenario.node[140].veinsmobility  speed  ETV
vector 987  RSUExampleScenario.node[140].veinsmobility  acceleration  ETV
vector 988  RSUExampleScenario.node[140].veinsmobility  co2emission  ETV
vector 991  RSUExampleScenario.node[141].veinsmobility  posx  ETV
vector 992  RSUExampleScenario.node[141].veinsmobility  posy  ETV
vector 993  RSUExampleScenario.node[141].veinsmobility  speed  ETV
vector 994  RSUExampleScenario.node[141].veinsmobility  acceleration  ETV
vector 995  RSUExampleScenario.node[141].veinsmobility  co2emission  ETV
vector 998  RSUExampleScenario.node[142].veinsmobility  posx  ETV
vector 999  RSUExampleScenario.node[142].veinsmobility  posy  ETV
vector 1000  RSUExampleScenario.node[142].veinsmobility  speed  ETV
vector 1001  RSUExampleScenario.node[142].veinsmobility  acceleration  ETV
vector 1002  RSUExampleScenario.node[142].veinsmobility  co2emission  ETV
vector 1005  RSUExampleScenario.node[143].veinsmobility  posx  ETV
vector 1006  RSUExampleScenario.node[143].veinsmobility  posy  ETV
vector 1007  RSUExampleScenario.node[143].veinsmobility  speed  ETV
8	52124 7265 4 38533 3 329 327 0.973 33.37627103736 949.14669909193 8412.3906272904
7	59389 7358 4 38533 3 329 327 -4.5 5.171069820486 4.9082294768045 835.46410983063
6	66747 7122 3 38533 2 329 328 0 27.768710480146 3408.8502863372 61569.844114644
5	73869 8701 2 38533 1 329 329 1217.256541593 2120.7953938423 498266.91974565 776707791.34426
4	82570 8785 2 38533 1 329 329 205.86099334876 2450.4278615726 424523.76993648 719508361.83927
vector 1008  RSUExampleScenario.node[143].veinsmobility  acceleration  ETV
vector 1009  RSUExampleScenario.node[143].veinsmobility  co2emission  ETV
vector 1012  RSUExampleScenario.node[144].veinsmobility  posx  ETV
vector 1013  RSUExampleScenario.node[144].veinsmobility  posy  ETV
vector 1014  RSUExampleScenario.node[144].veinsmobility  speed  ETV
vector 1015  RSUExampleScenario.node[144].veinsmobility  acceleration  ETV
vector 1016  RSUExampleScenario.node[144].veinsmobility  co2emission  ETV
vector 1019  RSUExampleScenario.node[145].veinsmobility  posx  ETV
vector 1020  RSUExampleScenario.node[145].veinsmobility  posy  ETV
vector 1021  RSUExampleScenario.node[145].veinsmobility  speed  ETV
vector 1022  RSUExampleScenario.node[145].veinsmobility  acceleration  ETV
vector 1023  RSUExampleScenario.node[145].veinsmobility  co2emission  ETV
vector 1026  RSUExampleScenario.node[146].veinsmobility  posx  ETV
vector 1027  RSUExampleScenario.node[146].veinsmobility  posy  ETV
vector 1028  RSUExampleScenario.node[146].veinsmobility  speed  ETV
vector 1029  RSUExampleScenario.node[146].veinsmobility  acceleration  ETV
vector 1030  RSUExampleScenario.node[146].veinsmobility  co2emission  ETV
15	92557 9061 6 46922 5 408 404 0.973 15.069549340392 901.65142820278 3958.7049189851
14	101618 9375 6 46922 5 408 404 -1.5 2.1 4.3647922189021 310.87699457078
13	110993 9260 5 46922 4 408 405 0 27.778188040318 3399.5981931433 56203.50594447
12	120253 11282 4 46922 3 408 406 1216.229352613 2120.893814832 637115.05738557 1035673680.7364
11	131535 11316 4 46922 3 408 406 204.24226106913 2450.3140188782 518060.55385193 930338149.64587
22	142851 9094 8 46932 7 410 404 0.973 30.813682513993 1008.444891508 7031.2493774316
21	151945 9341 8 46932 7 410 404 -4.5 5.0550076531286 5.9280704927394 822.92072092589
20	161286 9085 7 46932 6 410 405 0 27.777677725879 3400.3756802526 58288.876094212
19	170371 11362 6 46932 5 410 406 1216.720197292 2120.5535120554 642497.60531424 1051275259.2861
18	181733 11297 6 46932 5 410 406 209.41095704667 2450.0954562895 538375.63336498 965004379.43194
43	193030 8980 13 46942 12 412 401 0.973 28.913408316741 970.72572146072 7401.9698085459
42	202010 9321 13 46942 12 412 401 -4.5 5.1116352489791 1.1589504250027 761.92343513841
41	211331 8975 12 46942 11 412 402 0 27.763528873604 3394.8162001853 58798.814725119
40	220306 11303 11 46942 10 412 403 1216.4572545141 2120.3819291405 637319.98704348 1043312354.8213
39	231609 11303 11 46942 10 412 403 210.60501773306 2450.3526944926 557049.74592189 995024834.36166
36	242912 9251 11 46985 10 423 414 0.973 29.783652142168 993.4700925646 7189.3265237354
35	252163 9682 11 46985 10 423 414 -4.5 4.9322835165649 7.1480472224397 761.24502308684
34	261845 9326 10 46985 9 423 415 0 27.75182667057 3401.9472216051 58273.225418637
33	271171 11672 9 46985 8 423 416 1218.6330171963 2120.3836950734 654896.34000703 1066466631.2243
32	282843 11671 9 46985 8 423 416 208.84110650676 2450.4834751619 582072.51697337 1032146447.1091
71	294514 9651 20 47104 19 452 434 0.973 25.827599309969 1011.2873600672 7307.8473125294
70	304165 10335 20 47104 19 452 434 -4.469277995141 5.1608984425664 5.0480631260905 721.82872290832
69	314500 9889 19 47104 18 452 435 0 27.771861459516 3397.3591780653 57423.42562994
68	324389 12296 18 47104 17 452 436 1216.3201137977 2120.5161766419 687603.36833593 1122692934.1543
67	336685 12265 18 47104 17 452 436 211.7864428187 2450.3971729765 610399.30138643 1091242592.1829
vector 1033  RSUExampleScenario.node[147].veinsmobility  posx  ETV
vector 1034  RSUExampleScenario.node[147].veinsmobility  posy  ETV
vector 1040  RSUExampleScenario.node[148].veinsmobility  posx  ETV
vector 1041  RSUExampleScenario.node[148].veinsmobility  posy  ETV
vector 1035  RSUExampleScenario.node[147].veinsmobility  speed  ETV
vector 1036  RSUExampleScenario.node[147].veinsmobility  acceleration  ETV
vector 1037  RSUExampleScenario.node[147].veinsmobility  co2emission  ETV
vector 1042  RSUExampleScenario.node[148].veinsmobility  speed  ETV
vector 1047  RSUExampleScenario.node[149].veinsmobility  posx  ETV
vector 1048  RSUExampleScenario.node[149].veinsmobility  posy  ETV
vector 1043  RSUExampleScenario.node[148].veinsmobility  acceleration  ETV
vector 1044  RSUExampleScenario.node[148].veinsmobility  co2emission  ETV
vector 1054  RSUExampleScenario.node[150].veinsmobility  posx  ETV
vector 1055  RSUExampleScenario.node[150].veinsmobility  posy  ETV
vector 1049  RSUExampleScenario.node[149].veinsmobility  speed  ETV
vector 1050  RSUExampleScenario.node[149].veinsmobility  acceleration  ETV
vector 1051  RSUExampleScenario.node[149].veinsmobility  co2emission  ETV
vector 1056  RSUExampleScenario.node[150].veinsmobility  speed  ETV
vector 1061  RSUExampleScenario.node[151].veinsmobility  posx  ETV
vector 1062  RSUExampleScenario.node[151].veinsmobility  posy  ETV
vector 1057  RSUExampleScenario.node[150].veinsmobility  acceleration  ETV
vector 1058  RSUExampleScenario.node[150].veinsmobility  co2emission  ETV
vector 1068  RSUExampleScenario.node[152].veinsmobility  posx  ETV
vector 1069  RSUExampleScenario.node[152].veinsmobility  posy  ETV
vector 1063  RSUExampleScenario.node[151].veinsmobility  speed  ETV
vector 1064  RSUExampleScenario.node[151].veinsmobility  acceleration  ETV
vector 1065  RSUExampleScenario.node[151].veinsmobility  co2emission  ETV
vector 1070  RSUExampleScenario.node[152].veinsmobility  speed  ETV
vector 1075  RSUExampleScenario.node[153].veinsmobility  posx  ETV
vector 1076  RSUExampleScenario.node[153].veinsmobility  posy  ETV
vector 1071  RSUExampleScenario.node[152].veinsmobility  acceleration  ETV
vector 1072  RSUExampleScenario.node[152].veinsmobility  co2emission  ETV
99	351190 10293 28 47209 27 477 451 0.77427503412539 24.883140488425 1049.6440106776 6731.3835810459
98	361483 10904 28 47209 27 477 451 -4.5 5.0331682925918 8.1405550703428 726.39507290731
97	372387 10502 27 47209 26 477 452 0 27.763474684097 3405.1954606606 56010.591963143
96	382889 12807 26 47209 25 477 453 1217.1361615127 2120.6161878332 719617.30751239 1183490122.7558
95	395696 12810 26 47209 25 477 453 208.08977277868 2450.2129085162 632053.1300724 1149512700.6967
vector 1082  RSUExampleScenario.node[154].veinsmobility  posx  ETV
vector 1083  RSUExampleScenario.node[154].veinsmobility  posy  ETV
vector 1077  RSUExampleScenario.node[153].veinsmobility  speed  ETV
vector 1089  RSUExampleScenario.node[155].veinsmobility  posx  ETV
vector 1090  RSUExampleScenario.node[155].veinsmobility  posy  ETV
vector 1078  RSUExampleScenario.node[153].veinsmobility  acceleration  ETV
vector 1079  RSUExampleScenario.node[153].veinsmobility  co2emission  ETV
vector 1084  RSUExampleScenario.node[154].veinsmobility  speed  ETV
vector 1085  RSUExampleScenario.node[154].veinsmobility  acceleration  ETV
vector 1086  RSUExampleScenario.node[154].veinsmobility  co2emission  ETV
vector 1091  RSUExampleScenario.node[155].veinsmobility  speed  ETV
vector 1096  RSUExampleScenario.node[156].veinsmobility  posx  ETV
vector 1097  RSUExampleScenario.node[156].veinsmobility  posy  ETV
vector 1092  RSUExampleScenario.node[155].veinsmobility  acceleration  ETV
vector 1093  RSUExampleScenario.node[155].veinsmobility  co2emission  ETV
vector 1103  RSUExampleScenario.node[157].veinsmobility  posx  ETV
vector 1104  RSUExampleScenario.node[157].veinsmobility  posy  ETV
vector 1098  RSUExampleScenario.node[156].veinsmobility  speed  ETV
vector 1099  RSUExampleScenario.node[156].veinsmobility  acceleration  ETV
vector 1100  RSUExampleScenario.node[156].veinsmobility  co2emission  ETV
vector 1105  RSUExampleScenario.node[157].veinsmobility  speed  ETV
vector 1110  RSUExampleScenario.node[158].veinsmobility  posx  ETV
vector 1111  RSUExampleScenario.node[158].veinsmobility  posy  ETV
vector 1106  RSUExampleScenario.node[157].veinsmobility  acceleration  ETV
vector 1107  RSUExampleScenario.node[157].veinsmobility  co2emission  ETV
vector 1117  RSUExampleScenario.node[159].veinsmobility  posx  ETV
vector 1118  RSUExampleScenario.node[159].veinsmobility  posy  ETV
vector 1112  RSUExampleScenario.node[158].veinsmobility  speed  ETV
vector 1124  RSUExampleScenario.node[160].veinsmobility  posx  ETV
vector 1125  RSUExampleScenario.node[160].veinsmobility  posy  ETV
vector 1113  RSUExampleScenario.node[158].veinsmobility  acceleration  ETV
vector 1114  RSUExampleScenario.node[158].veinsmobility  co2emission  ETV
vector 1119  RSUExampleScenario.node[159].veinsmobility  speed  ETV
vector 1120  RSUExampleScenario.node[159].veinsmobility  acceleration  ETV
vector 1121  RSUExampleScenario.node[159].veinsmobility  co2emission  ETV
vector 1126  RSUExampleScenario.node[160].veinsmobility  speed  ETV
vector 1131  RSUExampleScenario.node[161].veinsmobility  posx  ETV
vector 1132  RSUExampleScenario.node[161].veinsmobility  posy  ETV
vector 1127  RSUExampleScenario.node[160].veinsmobility  acceleration  ETV
vector 1128  RSUExampleScenario.node[160].veinsmobility  co2emission  ETV
vector 1138  RSUExampleScenario.node[162].veinsmobility  posx  ETV
vector 1139  RSUExampleScenario.node[162].veinsmobility  posy  ETV
vector 1133  RSUExampleScenario.node[161].veinsmobility  speed  ETV
vector 1134  RSUExampleScenario.node[161].veinsmobility  acceleration  ETV
vector 1135  RSUExampleScenario.node[161].veinsmobility  co2emission  ETV
vector 1140  RSUExampleScenario.node[162].veinsmobility  speed  ETV
vector 1145  RSUExampleScenario.node[163].veinsmobility  posx  ETV
vector 1146  RSUExampleScenario.node[163].veinsmobility  posy  ETV
vector 1141  RSUExampleScenario.node[162].veinsmobility  acceleration  ETV
vector 1142  RSUExampleScenario.node[162].veinsmobility  co2emission  ETV
vector 1152  RSUExampleScenario.node[164].veinsmobility  posx  ETV
vector 1153  RSUExampleScenario.node[164].veinsmobility  posy  ETV
vector 1147  RSUExampleScenario.node[163].veinsmobility  speed  ETV
vector 1159  RSUExampleScenario.node[165].veinsmobility  posx  ETV
vector 1160  RSUExampleScenario.node[165].veinsmobility  posy  ETV
vector 1148  RSUExampleScenario.node[163].veinsmobility  acceleration  ETV
vector 1149  RSUExampleScenario.node[163].veinsmobility  co2emission  ETV
vector 1154  RSUExampleScenario.node[164].veinsmobility  speed  ETV
vector 1155  RSUExampleScenario.node[164].veinsmobility  acceleration  ETV
vector 1156  RSUExampleScenario.node[164].veinsmobility  co2emission  ETV
vector 1161  RSUExampleScenario.node[165].veinsmobility  speed  ETV
vector 1166  RSUExampleScenario.node[166].veinsmobility  posx  ETV
vector 1167  RSUExampleScenario.node[166].veinsmobility  posy  ETV
vector 1162  RSUExampleScenario.node[165].veinsmobility  acceleration  ETV
vector 1163  RSUExampleScenario.node[165].veinsmobility  co2emission  ETV
vector 1173  RSUExampleScenario.node[167].veinsmobility  posx  ETV
vector 1174  RSUExampleScenario.node[167].veinsmobility  posy  ETV
vector 1168  RSUExampleScenario.node[166].veinsmobility  speed  ETV
vector 1169  RSUExampleScenario.node[166].veinsmobility  acceleration  ETV
vector 1170  RSUExampleScenario.node[166].veinsmobility  co2emission  ETV
vector 1175  RSUExampleScenario.node[167].veinsmobility  speed  ETV
vector 1180  RSUExampleScenario.node[168].veinsmobility  posx  ETV
vector 1181  RSUExampleScenario.node[168].veinsmobility  posy  ETV
vector 1176  RSUExampleScenario.node[167].veinsmobility  acceleration  ETV
vector 1177  RSUExampleScenario.node[167].veinsmobility  co2emission  ETV
vector 1187  RSUExampleScenario.node[169].veinsmobility  posx  ETV
vector 1188  RSUExampleScenario.node[169].veinsmobility  posy  ETV
vector 1182  RSUExampleScenario.node[168].veinsmobility  speed  ETV
vector 1194  RSUExampleScenario.node[170].veinsmobility  posx  ETV
vector 1195  RSUExampleScenario.node[170].veinsmobility  posy  ETV
vector 1183  RSUExampleScenario.node[168].veinsmobility  acceleration  ETV
vector 1184  RSUExampleScenario.node[168].veinsmobility  co2emission  ETV
vector 1189  RSUExampleScenario.node[169].veinsmobility  speed  ETV
vector 1190  RSUExampleScenario.node[169].veinsmobility  acceleration  ETV
vector 1191  RSUExampleScenario.node[169].veinsmobility  co2emission  ETV
vector 1196  RSUExampleScenario.node[170].veinsmobility  speed  ETV
vector 1201  RSUExampleScenario.node[171].veinsmobility  posx  ETV
vector 1202  RSUExampleScenario.node[171].veinsmobility  posy  ETV
vector 1197  RSUExampleScenario.node[170].veinsmobility  acceleration  ETV
vector 1198  RSUExampleScenario.node[170].veinsmobility  co2emission  ETV
vector 1208  RSUExampleScenario.node[172].veinsmobility  posx  ETV
vector 1209  RSUExampleScenario.node[172].veinsmobility  posy  ETV
vector 1203  RSUExampleScenario.node[171].veinsmobility  speed  ETV
vector 1204  RSUExampleScenario.node[171].veinsmobility  acceleration  ETV
vector 1205  RSUExampleScenario.node[171].veinsmobility  co2emission  ETV
vector 1210  RSUExampleScenario.node[172].veinsmobility  speed  ETV
vector 1215  RSUExampleScenario.node[173].veinsmobility  posx  ETV
vector 1216  RSUExampleScenario.node[173].veinsmobility  posy  ETV
vector 1211  RSUExampleScenario.node[172].veinsmobility  acceleration  ETV
vector 1212  RSUExampleScenario.node[172].veinsmobility  co2emission  ETV
vector 1222  RSUExampleScenario.node[174].veinsmobility  posx  ETV
vector 1223  RSUExampleScenario.node[174].veinsmobility  posy  ETV
vector 1217  RSUExampleScenario.node[173].veinsmobility  speed  ETV
vector 1218  RSUExampleScenario.node[173].veinsmobility  acceleration  ETV
vector 1219  RSUExampleScenario.node[173].veinsmobility  co2emission  ETV
vector 1224  RSUExampleScenario.node[174].veinsmobility  speed  ETV
vector 1229  RSUExampleScenario.node[175].veinsmobility  posx  ETV
vector 1230  RSUExampleScenario.node[175].veinsmobility  posy  ETV
vector 1225  RSUExampleScenario.node[174].veinsmobility  acceleration  ETV
vector 1226  RSUExampleScenario.node[174].veinsmobility  co2emission  ETV
vector 1236  RSUExampleScenario.node[176].veinsmobility  posx  ETV
vector 1237  RSUExampleScenario.node[176].veinsmobility  posy  ETV
vector 1231  RSUExampleScenario.node[175].veinsmobility  speed  ETV
vector 1232  RSUExampleScenario.node[175].veinsmobility  acceleration  ETV
vector 1233  RSUExampleScenario.node[175].veinsmobility  co2emission  ETV
vector 1238  RSUExampleScenario.node[176].veinsmobility  speed  ETV
vector 1243  RSUExampleScenario.node[177].veinsmobility  posx  ETV
vector 1244  RSUExampleScenario.node[177].veinsmobility  posy  ETV
vector 1239  RSUExampleScenario.node[176].veinsmobility  acceleration  ETV
vector 1240  RSUExampleScenario.node[176].veinsmobility  co2emission  ETV
vector 1250  RSUExampleScenario.node[178].veinsmobility  posx  ETV
vector 1251  RSUExampleScenario.node[178].veinsmobility  posy  ETV
vector 1245  RSUExampleScenario.node[177].veinsmobility  speed  ETV
vector 1246  RSUExampleScenario.node[177].veinsmobility  acceleration  ETV
vector 1247  RSUExampleScenario.node[177].veinsmobility  co2emission  ETV
vector 1252  RSUExampleScenario.node[178].veinsmobility  speed  ETV
vector 1257  RSUExampleScenario.node[179].veinsmobility  posx  ETV
vector 1258  RSUExampleScenario.node[179].veinsmobility  posy  ETV
vector 1253  RSUExampleScenario.node[178].veinsmobility  acceleration  ETV
vector 1254  RSUExampleScenario.node[178].veinsmobility  co2emission  ETV
vector 1259  RSUExampleScenario.node[179].veinsmobility  speed  ETV
vector 1264  RSUExampleScenario.node[180].veinsmobility  posx  ETV
vector 1265  RSUExampleScenario.node[180].veinsmobility  posy  ETV
vector 1260  RSUExampleScenario.node[179].veinsmobility  acceleration  ETV
vector 1261  RSUExampleScenario.node[179].veinsmobility  co2emission  ETV
vector 1271  RSUExampleScenario.node[181].veinsmobility  posx  ETV
vector 1272  RSUExampleScenario.node[181].veinsmobility  posy  ETV
vector 1266  RSUExampleScenario.node[180].veinsmobility  speed  ETV
vector 1267  RSUExampleScenario.node[180].veinsmobility  acceleration  ETV
vector 1268  RSUExampleScenario.node[180].veinsmobility  co2emission  ETV
vector 1273  RSUExampleScenario.node[181].veinsmobility  speed  ETV
vector 1278  RSUExampleScenario.node[182].veinsmobility  posx  ETV
vector 1279  RSUExampleScenario.node[182].veinsmobility  posy  ETV
vector 1274  RSUExampleScenario.node[181].veinsmobility  acceleration  ETV
vector 1275  RSUExampleScenario.node[181].veinsmobility  co2emission  ETV
vector 1280  RSUExampleScenario.node[182].veinsmobility  speed  ETV
vector 1285  RSUExampleScenario.node[183].veinsmobility  posx  ETV
vector 1286  RSUExampleScenario.node[183].veinsmobility  posy  ETV
vector 1281  RSUExampleScenario.node[182].veinsmobility  acceleration  ETV
vector 1282  RSUExampleScenario.node[182].veinsmobility  co2emission  ETV
57	419036 11374 17 60738 16 521 506 0.973 23.313052489229 1076.4104535679 5855.887137071
56	430410 11962 17 60738 16 521 506 -4.5 4.9835284645441 6.6668837323683 707.75682576933
55	442372 11551 16 60738 15 521 507 0 27.737601034408 3400.6105493081 57159.540643766
54	453923 14359 15 60738 14 521 508 1217.0054038735 2120.6620206097 785237.29752614 1254731885.951
53	468282 14320 15 60738 14 521 508 210.8340612381 2450.0600857328 646397.89208267 1113886632.4335
vector 1292  RSUExampleScenario.node[184].veinsmobility  posx  ETV
vector 1293  RSUExampleScenario.node[184].veinsmobility  posy  ETV
vector 1287  RSUExampleScenario.node[183].veinsmobility  speed  ETV
vector 1288  RSUExampleScenario.node[183].veinsmobility  acceleration  ETV
vector 1289  RSUExampleScenario.node[183].veinsmobility  co2emission  ETV
vector 1294  RSUExampleScenario.node[184].veinsmobility  speed  ETV
vector 1299  RSUExampleScenario.node[185].veinsmobility  posx  ETV
vector 1300  RSUExampleScenario.node[185].veinsmobility  posy  ETV
vector 1295  RSUExampleScenario.node[184].veinsmobility  acceleration  ETV
vector 1296  RSUExampleScenario.node[184].veinsmobility  co2emission  ETV
vector 1301  RSUExampleScenario.node[185].veinsmobility  speed  ETV
vector 1306  RSUExampleScenario.node[186].veinsmobility  posx  ETV
vector 1307  RSUExampleScenario.node[186].veinsmobility  posy  ETV
vector 1302  RSUExampleScenario.node[185].veinsmobility  acceleration  ETV
vector 1303  RSUExampleScenario.node[185].veinsmobility  co2emission  ETV
vector 1308  RSUExampleScenario.node[186].veinsmobility  speed  ETV
vector 1313  RSUExampleScenario.node[187].veinsmobility  posx  ETV
vector 1314  RSUExampleScenario.node[187].veinsmobility  posy  ETV
vector 1309  RSUExampleScenario.node[186].veinsmobility  acceleration  ETV
vector 1310  RSUExampleScenario.node[186].veinsmobility  co2emission  ETV
vector 1315  RSUExampleScenario.node[187].veinsmobility  speed  ETV
vector 1320  RSUExampleScenario.node[188].veinsmobility  posx  ETV
vector 1321  RSUExampleScenario.node[188].veinsmobility  posy  ETV
vector 1316  RSUExampleScenario.node[187].veinsmobility  acceleration  ETV
vector 1317  RSUExampleScenario.node[187].veinsmobility  co2emission  ETV
vector 1322  RSUExampleScenario.node[188].veinsmobility  speed  ETV
vector 1327  RSUExampleScenario.node[189].veinsmobility  posx  ETV
vector 1328  RSUExampleScenario.node[189].veinsmobility  posy  ETV
vector 1323  RSUExampleScenario.node[188].veinsmobility  acceleration  ETV
vector 1324  RSUExampleScenario.node[188].veinsmobility  co2emission  ETV
vector 1334  RSUExampleScenario.node[190].veinsmobility  posx  ETV
vector 1335  RSUExampleScenario.node[190].veinsmobility  posy  ETV
vector 1329  RSUExampleScenario.node[189].veinsmobility  speed  ETV
vector 1330  RSUExampleScenario.node[189].veinsmobility  acceleration  ETV
vector 1331  RSUExampleScenario.node[189].veinsmobility  co2emission  ETV
vector 1336  RSUExampleScenario.node[190].veinsmobility  speed  ETV
113	485127 11829 31 60790 30 534 505 0.973 26.426869661293 1117.0576738884 7246.9046172917
112	496956 12413 31 60790 30 534 505 -4.5 5.1450577142862 7.2064302817633 805.87049069389
111	509369 11982 30 60790 29 534 506 0 27.750359571008 3407.8483003058 55346.820218861
110	521351 14879 29 60790 28 534 507 1217.3647000194 2120.4880381208 797604.67065318 1296629476.2439
109	536230 14848 29 60790 28 534 507 206.67296412261 2450.6204846838 650242.56876375 1160109613.0842
vector 1341  RSUExampleScenario.node[191].veinsmobility  posx  ETV
vector 1342  RSUExampleScenario.node[191].veinsmobility  posy  ETV
vector 1337  RSUExampleScenario.node[190].veinsmobility  acceleration  ETV
vector 1338  RSUExampleScenario.node[190].veinsmobility  co2emission  ETV
vector 1343  RSUExampleScenario.node[191].veinsmobility  speed  ETV
29	551429 11951 10 60799 9 536 528 -0.59656284061144 30.360151436556 1204.2018153465 8294.0119939359
28	563380 12578 10 60799 9 536 528 -4.5 5.1017067492299 6.2576446586557 1080.4768137504
27	575958 12243 9 60799 8 536 529 0 27.750909077181 3401.3303868184 56891.68945026
26	588201 14967 8 60799 7 536 530 1217.5284392126 2120.8036144441 803956.08462761 1261445144.1588
25	603168 14949 8 60799 7 536 530 208.77785422152 2450.3857637221 650365.20618474 1070724642.5069
vector 1348  RSUExampleScenario.node[192].veinsmobility  posx  ETV
vector 1349  RSUExampleScenario.node[192].veinsmobility  posy  ETV
vector 1344  RSUExampleScenario.node[191].veinsmobility  acceleration  ETV
vector 1345  RSUExampleScenario.node[191].veinsmobility  co2emission  ETV
vector 1350  RSUExampleScenario.node[192].veinsmobility  speed  ETV
120	618468 11774 33 60804 32 538 507 0.973 32.195396288923 1233.815222607 10474.553615894
119	630242 12457 33 60804 32 538 507 -4.5 5.1173787490844 4.519121596958 1160.2491792138
118	642699 12120 32 60804 31 538 508 0 27.715720625184 3398.6254398943 53121.480395163
117	654819 14961 31 60804 30 538 509 1218.8006886011 2120.9527955605 802942.47534344 1310105509.9517
116	669780 14952 31 60804 30 538 509 210.46322108246 2450.4987197731 709205.204674 1264383605.5545
vector 1355  RSUExampleScenario.node[193].veinsmobility  posx  ETV
vector 1356  RSUExampleScenario.node[193].veinsmobility  posy  ETV
vector 1351  RSUExampleScenario.node[192].veinsmobility  acceleration  ETV
vector 1352  RSUExampleScenario.node[192].veinsmobility  co2emission  ETV
vector 1357  RSUExampleScenario.node[193].veinsmobility  speed  ETV
vector 1362  RSUExampleScenario.node[194].veinsmobility  posx  ETV
vector 1363  RSUExampleScenario.node[194].veinsmobility  posy  ETV
vector 1358  RSUExampleScenario.node[193].veinsmobility  acceleration  ETV
vector 1359  RSUExampleScenario.node[193].veinsmobility  co2emission  ETV
134	685366 11716 36 60812 35 541 507 0.973 32.462950825783 1211.954858521 10824.396205634
133	697082 12473 36 60812 35 541 507 -4.5 5.3800902869087 8.227161090472 1025.7279156309
132	709555 12017 35 60812 34 541 508 0 27.712539756373 3405.688857111 53607.200833576
131	721572 14971 34 60812 33 541 509 1216.128523441 2120.9182919469 804034.59358963 1313816773.3064
130	736543 14976 34 60812 33 541 509 205.74896724301 2450.6158359967 717701.06579257 1284387301.914
vector 1364  RSUExampleScenario.node[194].veinsmobility  speed  ETV
vector 1369  RSUExampleScenario.node[195].veinsmobility  posx  ETV
vector 1370  RSUExampleScenario.node[195].veinsmobility  posy  ETV
vector 1365  RSUExampleScenario.node[194].veinsmobility  acceleration  ETV
vector 1366  RSUExampleScenario.node[194].veinsmobility  co2emission  ETV
vector 1371  RSUExampleScenario.node[195].veinsmobility  speed  ETV
vector 1376  RSUExampleScenario.node[196].veinsmobility  posx  ETV
vector 1377  RSUExampleScenario.node[196].veinsmobility  posy  ETV
vector 1372  RSUExampleScenario.node[195].veinsmobility  acceleration  ETV
vector 1373  RSUExampleScenario.node[195].veinsmobility  co2emission  ETV
vector 1378  RSUExampleScenario.node[196].veinsmobility  speed  ETV
vector 1383  RSUExampleScenario.node[197].veinsmobility  posx  ETV
vector 1384  RSUExampleScenario.node[197].veinsmobility  posy  ETV
vector 1379  RSUExampleScenario.node[196].veinsmobility  acceleration  ETV
vector 1380  RSUExampleScenario.node[196].veinsmobility  co2emission  ETV
106	752572 12207 30 60839 29 547 519 0.973 23.539569326993 1113.5100304007 7080.6923829867
105	764779 12909 30 60839 29 547 519 -3.7452208851893 5.084406721758 5.8558207838361 721.73799373383
104	777688 12422 29 60839 28 547 520 0 27.770110275866 3401.6950353159 55985.254125638
103	790110 15315 28 60839 27 547 521 1218.0095795356 2120.8700924637 802860.05243471 1283194869.7366
102	805425 15305 28 60839 27 547 521 208.84769755707 2450.2557112055 693435.71514627 1202871881.1329
vector 1385  RSUExampleScenario.node[197].veinsmobility  speed  ETV
vector 1386  RSUExampleScenario.node[197].veinsmobility  acceleration  ETV
vector 1387  RSUExampleScenario.node[197].veinsmobility  co2emission  ETV
vector 1390  RSUExampleScenario.node[198].veinsmobility  posx  ETV
vector 1391  RSUExampleScenario.node[198].veinsmobility  posy  ETV
vector 1392  RSUExampleScenario.node[198].veinsmobility  speed  ETV
vector 1397  RSUExampleScenario.node[199].veinsmobility  posx  ETV
vector 1398  RSUExampleScenario.node[199].veinsmobility  posy  ETV
vector 1393  RSUExampleScenario.node[198].veinsmobility  acceleration  ETV
vector 1394  RSUExampleScenario.node[198].veinsmobility  co2emission  ETV
vector 1399  RSUExampleScenario.node[199].veinsmobility  speed  ETV
vector 1404  RSUExampleScenario.node[200].veinsmobility  posx  ETV
vector 1405  RSUExampleScenario.node[200].veinsmobility  posy  ETV
vector 1400  RSUExampleScenario.node[199].veinsmobility  acceleration  ETV
vector 1401  RSUExampleScenario.node[199].veinsmobility  co2emission  ETV
vector 1406  RSUExampleScenario.node[200].veinsmobility  speed  ETV
vector 1411  RSUExampleScenario.node[201].veinsmobility  posx  ETV
vector 1412  RSUExampleScenario.node[201].veinsmobility  posy  ETV
vector 1407  RSUExampleScenario.node[200].veinsmobility  acceleration  ETV
vector 1408  RSUExampleScenario.node[200].veinsmobility  co2emission  ETV
vector 1413  RSUExampleScenario.node[201].veinsmobility  speed  ETV
50	822202 12123 15 60878 14 557 544 0.973 13.87747216524 1078.4339531003 4324.492149379
49	834325 13023 15 60878 14 557 544 -1.5 1.941955567383 3.5491791010646 422.44062619258
48	847348 12946 14 60878 13 557 545 0 27.779343798762 3394.1166668917 50553.308603658
47	860294 15422 13 60878 12 557 546 1216.5265470566 2120.9336745767 826052.96276443 1295740259.9173
46	875716 15372 13 60878 12 557 546 205.43233135284 2450.4068745655 695854.35465714 1159485727.165
vector 1418  RSUExampleScenario.node[202].veinsmobility  posx  ETV
vector 1419  RSUExampleScenario.node[202].veinsmobility  posy  ETV
vector 1414  RSUExampleScenario.node[201].veinsmobility  acceleration  ETV
vector 1415  RSUExampleScenario.node[201].veinsmobility  co2emission  ETV
vector 1420  RSUExampleScenario.node[202].veinsmobility  speed  ETV
vector 1425  RSUExampleScenario.node[203].veinsmobility  posx  ETV
vector 1426  RSUExampleScenario.node[203].veinsmobility  posy  ETV
vector 1421  RSUExampleScenario.node[202].veinsmobility  acceleration  ETV
vector 1422  RSUExampleScenario.node[202].veinsmobility  co2emission  ETV
78	891722 11832 22 60894 21 560 540 -0.23757496781559 27.304206522558 1176.8873167323 8470.6189644645
77	903554 12920 22 60894 21 560 540 -3.3806462941462 5.2636679013819 5.2720153518436 828.19058543991
76	916474 12439 21 60894 20 560 541 0 27.751222434836 3403.5511051847 53334.31134847
[...]
1897	26965673 19644 109233 130949 841 1499 659 -2.5 2.8751586195799 3.3973332771764 551.40288258696
1896	26985317 19117 109228 130949 840 1499 660 0 27.773756576783 3401.5994558638 50905.36369141
1895	27004434 21603 109226 130949 839 1499 661 1216.1975356368 2120.816875929 1189453.6302521 2192476211.9574
1894	27026037 21602 109226 130949 839 1499 661 206.44670284295 2450.6144553643 1283807.2571955 2831350657.1748
1926	27047639 17715 113540 130952 849 1502 654 0.973 18.885885752317 1127.8341149467 4343.9216953457
1925	27065354 19420 113540 130952 849 1502 654 -2.2264048075729 2.69474019543 3.3983384128574 368.98437420862
1924	27084774 18715 109255 130952 848 1502 655 0 27.7622201471 3400.0505559687 51340.357995344
1923	27103489 21462 109250 130952 847 1502 656 1218.1662688656 2120.8966607526 1183255.4259209 2186517490.8698
1922	27124951 21445 109250 130952 847 1502 656 207.18220430973 2450.2802609081 1284857.6329187 2860619416.1279
1919	27146396 17998 109250 130956 847 1506 660 0.973 19.499726675477 1157.9813449275 4448.1496083142
1918	27164394 19659 109250 130956 847 1506 660 -2.5 2.815099001847 5.0778519787866 415.19788793849
1917	27184053 18950 109248 130956 846 1506 661 0 27.771452814668 3405.9029445565 53278.925665622
1916	27203003 21638 109244 130956 845 1506 662 1216.4976512874 2120.8846021434 1197008.9129613 2216744944.0033
1915	27224641 21638 109244 130956 845 1506 662 204.40019713901 2450.3323133742 1296483.9668658 2885405346.5947
1933	27246279 18089 114094 130960 851 1509 659 0.973 19.187001617189 1158.5717631209 4658.7944998643
1932	27264368 19685 114094 130960 851 1509 659 -2.5 2.8998200470279 5.8420429269551 391.77160098309
1931	27284053 19059 114089 130960 850 1509 660 0 27.778123870117 3404.3568120028 55241.451488603
1930	27303112 21564 113540 130960 849 1509 661 1216.2393200789 2120.748430525 1201610.9326463 2235173278.5051
1929	27324676 21612 113540 130960 849 1509 661 204.88914783089 2450.5388740276 1328681.3899846 2970479982.5652
1940	27346288 18075 114110 130963 854 1512 659 0.973 19.839417571365 1142.5771512775 4455.0904085856
1939	27364363 19733 114110 130963 854 1512 659 -2.4988291929732 2.7597781229128 5.702241313682 343.27386795925
1938	27384096 19033 114107 130963 853 1512 660 0 27.777467193452 3402.3361602012 54815.761272761
1937	27403129 21615 114099 130963 852 1512 661 1217.8024326861 2120.7370774494 1201060.4288874 2233115709.9159
1936	27424744 21588 114099 130963 852 1512 661 205.58077759983 2450.4988979385 1328188.0581394 2969261787.5469
1947	27446332 18084 114120 130966 857 1515 659 0.973 20.641388257022 1135.8462440955 4363.1974379834
1946	27464416 19707 114120 130966 857 1515 659 -2.5 2.6507414133525 6.0604684974197 338.59222617283
1945	27484123 19033 114117 130966 856 1515 660 0 27.779114243789 3402.7599357679 54420.593917224
1944	27503156 21540 114114 130966 855 1515 661 1219.1711435094 2120.7919467762 1200660.4675407 2231881677.5498
1943	27524696 21577 114114 130966 855 1515 661 206.353858007 2450.4962050451 1328377.1085672 2970296914.5061
1954	27546273 18135 114131 130969 861 1518 658 0.973 18.869517617916 1139.4470358409 4262.3991775125
1953	27564408 19651 114131 130969 861 1518 658 -2.5 2.7866975396972 6.0623528242856 377.7245840071
1952	27584059 19031 114129 130969 860 1518 659 0 27.769780835703 3400.72423223 54055.676300951
1951	27603090 21560 114126 130969 859 1518 660 1218.7594263395 2120.849771997 1199034.859617 2229590678.1201
1950	27624650 21591 114126 130969 859 1518 660 207.17564305931 2450.5144837316 1327994.6729416 2973634717.126
1961	27646241 17464 116081 130974 886 1522 637 0.973 19.242349096953 1198.432080987 5202.5085534945
1960	27663705 18999 116081 130974 886 1522 637 -2.5 2.8676313281152 5.7803407096463 507.14427659656
1959	27682704 18394 116079 130974 885 1522 638 0 27.764973655154 3408.483897101 55970.098593077
1958	27701098 20913 116076 130974 884 1522 639 1217.5317441383 2120.9352351548 1156818.0183556 2142809358.3524
1957	27722011 20884 116076 130974 884 1522 639 204.37938125164 2450.3910244923 1285022.0249745 2877213149.3761
1968	27742895 17570 116087 130986 888 1532 645 0.973 18.601212490018 1209.4026679416 5390.0044891555
1967	27760465 19307 116087 130986 888 1532 645 -2.5 2.8558912075482 4.447989054471 493.78516881735
1966	27779772 18718 116085 130986 887 1532 646 0 27.775615918974 3404.0465484589 56574.508273619
1965	27798490 21194 116081 130986 886 1532 647 1216.5390673708 2120.853702697 1179765.854755 2199250035.6188
1964	27819684 21111 116081 130986 886 1532 647 206.86235643656 2450.1987970705 1337069.4178622 3009309850.9576
1975	27840795 18126 116092 131014 890 1555 666 0.973 20.592280762432 1214.4483828822 5149.7508409477
1974	27858921 20113 116092 131014 890 1555 666 -2.4737832748622 2.828959908156 6.4210105178761 449.78826545694
1973	27879034 19482 116089 131014 889 1555 667 0 27.776614035739 3409.4951405014 56241.110407817
1972	27898516 21841 116087 131014 888 1555 668 1218.4991782829 2120.5604202207 1222304.9875787 2286486537.9525
1971	27920357 21797 116087 131014 888 1555 668 204.33304505271 2450.2113647254 1383755.5129844 3115955372.4056
1982	27942154 18224 116097 131018 892 1559 668 0.73931567138281 19.475320525453 1189.3100480333 4739.0165712777
1981	27960378 20161 116097 131018 892 1559 668 -2.4985613936267 2.8976564458932 6.6387962632877 404.18515892768
1980	27980539 19522 116096 131018 891 1559 669 0 27.753605114665 3407.9207488975 55509.91373107
1979	28000061 21955 116092 131018 890 1559 670 1218.7518724753 2120.692062662 1224733.1908759 2288864086.9961
1978	28022016 21967 116092 131018 890 1559 670 204.30175540457 2450.2965357095 1387119.5704246 3124934874.5443
1989	28043983 18162 116111 131021 895 1562 668 0.973 19.592521764735 1165.9467245264 4523.8501698498
1988	28062145 20123 116111 131021 895 1562 668 -2.4972801396879 2.7480483383138 3.0536824032331 356.87570478702
1987	28082268 19507 116108 131021 894 1562 669 0 27.76407557644 3402.0948959149 54970.186746194
1986	28101775 21959 116102 131021 893 1562 670 1218.8253178652 2120.8565900149 1223852.3269646 2285761895.1603
1985	28123734 21952 116102 131021 893 1562 670 206.43031899072 2450.4181957565 1387834.3683225 3128071956.5081
1996	28145686 18176 116121 131025 897 1566 670 0.973 20.219536577178 1164.5925565127 4576.0289113705
1995	28163862 20248 116121 131025 897 1566 670 -2.5 2.8229646628462 4.2927817483325 355.56846026658
1994	28184110 19570 116117 131025 896 1566 671 0 27.768183742373 3405.5757688982 54809.609358244
1993	28203680 21974 116111 131025 895 1566 672 1218.58951951 2120.7063186429 1225765.3017826 2286318679.1347
1992	28225654 22016 116111 131025 895 1566 672 204.52270563552 2450.5179340742 1391198.5514131 3137469201.4015
2003	28247670 18247 116129 131028 899 1569 671 0.87097089367682 19.128832080862 1149.6552888862 4363.5766646026
2002	28265917 20287 116129 131028 899 1569 671 -2.5 2.8382565046668 3.6209964589674 347.39792960646
2001	28286204 19601 116124 131028 898 1569 672 0 27.772706643611 3404.5671235863 54380.265861314
2000	28305805 22061 116121 131028 897 1569 673 1218.4019830776 2120.9190953244 1226695.8239881 2286564602.6293
1999	28327866 22065 116121 131028 897 1569 673 205.51540485153 2450.3174720824 1394834.3699523 3148979270.4916
2010	28349931 18296 116132 131033 901 1572 672 -0.045568406458661 18.890195854148 1156.169256218 4388.9739522458
2009	28368227 20290 116132 131033 901 1572 672 -2.5 2.8797852344355 3.5582488710568 400.10345769466
2008	28388517 19677 116131 131033 900 1572 673 0 27.771605443374 3401.7928190157 53957.074176896
2007	28408194 22013 116129 131033 899 1572 674 1217.3043981092 2120.9430105565 1227542.2253769 2286559613.4858
2006	28430207 22092 116129 131033 899 1572 674 206.40902685351 2450.3695066697 1401269.8363965 3174317182.1536
2017	28452299 18173 116136 131036 903 1575 673 0.973 19.759541096245 1194.3469217448 4959.7766222669
2016	28470472 20380 116136 131036 903 1575 673 -2.4682546810003 2.8266922906397 3.1826480150698 431.88177137912
2015	28490852 19726 116134 131036 902 1575 674 0 27.772279097053 3400.0709136169 55217.230913652
2014	28510578 22112 116132 131036 901 1575 675 1217.9620782007 2120.9105518814 1228049.507185 2285186870.3864
2013	28532690 22113 116132 131036 901 1575 675 207.34670485638 2450.6306850595 1408777.7858059 3203504905.3777
2024	28554803 18305 116143 131041 905 1579 675 0.68687063584801 16.354459886106 1182.5007695675 4599.5488639737
2023	28573108 20425 116143 131041 905 1579 675 -2.4986242135661 2.8895302096265 4.9210723472837 402.73014787512
2022	28593533 19759 116138 131041 904 1579 676 0 27.772862554661 3407.1875804905 54781.85925599
2021	28613292 22154 116136 131041 903 1579 677 1218.6939546699 2120.9276936203 1230278.8684213 2286871495.1989
2020	28635446 22203 116136 131041 903 1579 677 204.33629829925 2450.3411563713 1413323.8360045 3217794552.9875
2031	28657649 18322 116150 131044 907 1582 676 0.973 19.115092405382 1164.3796336 4481.3164365751
2030	28675971 20424 116150 131044 907 1582 676 -2.4534570440062 2.7357711397905 4.6760902740609 366.19551662746
2029	28696395 19745 116147 131044 906 1582 677 0 27.766976207104 3405.9022861344 54319.047421917
2028	28716140 22230 116143 131044 905 1582 678 1217.8210005295 2120.6694641896 1230742.7475984 2285281177.7593
2027	28738370 22221 116143 131044 905 1582 678 204.82023650897 2450.5216447118 1416301.2239655 3226895684.463
2038	28760591 18390 116155 131047 909 1585 677 0.8300340278539 18.73107453149 1174.5521479791 4544.7494806742
2037	28778981 20451 116155 131047 909 1585 677 -2.5 2.6528535649436 4.7002928377319 440.1243367503
2036	28799432 19863 116154 131047 908 1585 678 0 27.766069445832 3406.2507151374 53946.767422454
2035	28819295 22266 116150 131047 907 1585 679 1216.6818243852 2120.9305078192 1230243.3878157 2280055746.5097
2034	28841561 22227 116150 131047 907 1585 679 205.07856092358 2450.3425150877 1424364.2225921 3260098232.1117
2045	28863788 18377 116163 131050 911 1588 678 0.48298050816594 20.135036411014 1162.6009383628 4446.3510395161
2044	28882165 20484 116163 131050 911 1588 678 -2.5 2.7994133905645 4.001901532244 396.9762456588
2043	28902649 19823 116160 131050 910 1588 679 0 27.775406073937 3402.1945192231 53879.15816246
2042	28922472 22300 116155 131050 909 1588 680 1216.7488519251 2120.8988973359 1230137.844013 2276232788.7257
2041	28944772 22298 116155 131050 909 1588 680 205.60557251517 2450.5743343554 1430260.5377103 3282301744.4799
2157	28967070 15299 127632 131091 1075 1629 555 0.973 11.040115045715 1142.537880215 4469.6456618995
2156	28982369 15902 127632 131091 1075 1629 555 -2.5 3.1 5.8609596028406 725.94103486479
2155	28998271 15537 127627 131091 1074 1629 556 0 16.667090632827 3783.0544829193 47227.776492354
2154	29013808 18342 127626 131091 1073 1629 557 1141.6822229074 1907.2786024082 786767.52401024 1135345651.4506
2153	29032150 18298 127626 131091 1073 1629 557 204.32914381975 2415.3136166185 868374.52623031 1551731759.8796
2052	29050448 19642 116180 131094 913 1632 720 0.92940350861837 18.998229121395 1262.6388469247 5068.52715334
2051	29070090 22041 116180 131094 913 1632 720 -2.294213965768 2.829813864828 4.6505706603583 473.2905743404
2050	29092131 21346 116169 131094 912 1632 721 0 27.777119148569 3404.3223443705 53998.766985511
2049	29113477 23685 116163 131094 911 1632 722 1216.1070199283 2120.8264795346 1280203.874832 2329949698.5856
2048	29137162 23625 116163 131094 911 1632 722 205.05452395859 2450.6535176092 1462051.5456148 3310105027.7117
2059	29160787 19684 116191 131097 915 1635 721 0.973 18.737995365209 1236.5431906262 4703.9146119516
2058	29180471 22037 116191 131097 915 1635 721 -2.5 2.7336381949403 4.2874847220011 427.94891423421
2057	29202508 21335 116187 131097 914 1635 722 0 27.771056000351 3405.319383094 53126.15946675
2056	29223843 23724 116180 131097 913 1635 723 1217.8621448036 2120.8763348367 1280363.9177725 2326952022.6049
2055	29247567 23726 116180 131097 913 1635 723 205.48412173335 2450.400874279 1464423.7837976 3317829140.948
2066	29271293 19732 116198 131100 917 1638 722 0.973 18.812481759545 1226.7616457389 4633.9603587056
2065	29291025 22097 116198 131100 917 1638 722 -2.437598281994 2.7555914164009 3.6788454985492 398.21928789968
2064	29313122 21349 116195 131100 916 1638 723 0 27.778337190176 3401.5143372374 53151.325680105
2063	29334471 23712 116191 131100 915 1638 724 1216.663023524 2120.93763832 1278152.6758621 2315217021.4
2062	29358183 23698 116191 131100 915 1638 724 205.98794963956 2450.268028748 1466129.8315224 3323416069.5613
2164	29381881 15455 127638 131103 1077 1641 565 0.973 11.338792520041 1155.1373471894 4596.4256846183
2163	29397336 16250 127638 131103 1077 1641 565 -2.5 2.8139816904097 4.8621173729704 740.83315418443
2162	29413586 15887 127635 131103 1076 1641 566 0 16.662324956308 3778.2689361027 46379.347375564
2161	29429473 18637 127632 131103 1075 1641 567 1142.0433902554 1907.2183852345 800042.56408905 1154039766.8658
2160	29448110 18669 127632 131103 1075 1641 567 206.77681625832 2415.3723413909 888686.61157302 1593104793.8951
2073	29466779 19812 116206 131106 919 1644 726 0.67945942524692 22.209262783752 1223.9661563454 4610.4054587295
2072	29486591 22250 116206 131106 919 1644 726 -2.5 2.8437010465714 3.5934420058368 414.43059639486
2071	29508841 21534 116202 131106 918 1644 727 0 27.767107743126 3401.8772483879 53108.492083532
2070	29530375 23825 116198 131106 917 1644 728 1216.1994839106 2120.9645450553 1281960.2536275 2315661564.0166
2069	29554200 23892 116198 131106 917 1644 728 207.20003030729 2450.4543089335 1473611.079805 3336612241.5682
2080	29578092 19733 124493 131110 921 1648 728 -0.035857393659103 19.409471547233 1227.5906009213 4705.5646210051
2079	29597825 22311 124493 131110 921 1648 728 -2.4208928853658 2.8477516571307 6.1635672569056 399.27715077456
2078	29620136 21576 123674 131110 920 1648 729 0 27.776028129618 3408.3415688438 53366.47090408
2077	29641712 23860 116206 131110 919 1648 730 1218.3210915737 2120.7706202269 1282964.3105596 2312303341.5646
2076	29665572 23939 116206 131110 919 1648 730 204.3619873178 2450.5607453154 1478268.1944366 3355510337.3905
2087	29689511 19729 124507 131113 923 1651 729 0.6194068761798 18.650522371118 1221.5674204238 4557.2668740707
2086	29709240 22347 124507 131113 923 1651 729 -2.5 2.8637055311573 6.021117147659 373.16159737529
2085	29731587 21612 124502 131113 922 1651 730 0 27.777235314213 3405.7506674243 53051.733034626
2084	29753199 23983 124493 131113 921 1651 731 1216.0512489341 2120.8580600992 1281535.5637518 2302805368.6214
2083	29777182 23991 124493 131113 921 1651 731 204.85876642936 2450.5258619703 1479984.2205986 3361468829.7567
2094	29801173 19641 124523 131116 926 1654 729 0.973 19.942171444008 1199.2741848838 4365.649601406
2093	29820814 22290 124523 131116 926 1654 729 -2.4701043524162 2.7579287872632 5.5601727523394 325.55587041147
2092	29843104 21560 124517 131116 925 1654 730 0 27.770639116827 3403.3296656559 52534.340801809
2091	29864664 23989 124512 131116 924 1654 731 1217.8352015326 2120.8513468765 1280315.8521818 2298026652.9103
2090	29888653 23951 124512 131116 924 1654 731 205.63095895445 2450.5082243995 1479622.9899464 3362160387.9379
2101	29912604 19690 124533 131119 929 1657 729 0.973 20.330646908978 1195.9349396732 4323.251013118
2100	29932294 22310 124533 131119 929 1657 729 -2.5 2.6934341823992 5.6503675926521 336.39443532799
2099	29954604 21554 124531 131119 928 1657 730 0 27.778502007965 3401.1156158365 52119.366947545
2098	29976158 23991 124526 131119 927 1657 731 1216.6457386259 2120.854114525 1277832.8317014 2288581072.2476
2097	30000149 23958 124526 131119 927 1657 731 206.43783193466 2450.4833671993 1478664.6230105 3361084514.8682
2108	30024107 19793 124541 131122 932 1660 729 0.62913738149307 20.341524669843 1181.0888448166 4217.1808842526
2107	30043900 22337 124541 131122 932 1660 729 -2.4364181451593 2.6860567276979 5.8956775592152 301.76685139055
2106	30066237 21577 124537 131122 931 1660 730 0 27.778277774669 3400.7968895126 51940.115694796
2105	30087814 24002 124536 131122 930 1660 731 1217.1364656705 2120.9318091022 1275775.088013 2280806432.7867
2104	30111816 23887 124536 131122 930 1660 731 207.19738249911 2450.4820360343 1477715.7522901 3359502671.3477
2115	30135703 19856 124562 131126 937 1664 728 0.35892491114571 18.429434516405 1234.9787045663 4748.6157779953
2114	30155559 22390 124562 131126 937 1664 728 -2.484057741632 2.7917864765506 7.7141327980683 396.11365522846
2113	30177949 21682 124557 131126 936 1664 729 0 27.770950157497 3404.7575684001 53636.61464421
2112	30199631 23978 124552 131126 935 1664 730 1217.3928208658 2120.9590229494 1267862.0527233 2254413853.3388
2111	30223609 23938 124552 131126 935 1664 730 204.42978352425 2450.6355249023 1472433.328444 3347628361.6573
2171	30247547 16014 127645 131129 1079 1667 589 0.973 12.015812868369 1162.1863789668 4501.2639936331
2170	30263561 17120 127645 131129 1079 1667 589 -2.5 2.9584066599945 5.626447118084 724.46593028453
2169	30280681 16713 127642 131129 1078 1667 590 0 16.667568770399 3780.5416791581 45107.743209928
2168	30297394 19426 127638 131129 1077 1667 591 1141.8614256401 1908.1476488942 836797.84844248 1210640269.8306
2167	30316820 19451 127638 131129 1077 1667 591 205.11970504106 2415.4001355071 927821.33869341 1671439781.4067
2122	30336271 16502 127600 131132 1065 1670 606 0.973 20.164611986543 1186.7925280915 5749.9184276283
2121	30352773 18093 127600 131132 1065 1670 606 -2.5 2.7738209739437 4.1830558603676 497.98315196403
2120	30370866 17670 127596 131132 1064 1670 607 0 27.778301454049 3401.5462863792 57273.251936898
2119	30388536 20022 127594 131132 1063 1670 608 1216.9126030039 2120.4526122594 1073442.3109786 1935526397.9537
2118	30408558 20032 127594 131132 1063 1670 608 205.94962537673 2450.3228634569 1227078.8397765 2763562222.0123
2129	30428590 16650 127605 131136 1067 1674 608 0.973 20.786369790253 1156.8685220964 5300.8527620509
2128	30445240 18170 127605 131136 1067 1674 608 -2.5 2.7623564147996 4.7456043615229 455.56438775825
2127	30463410 17628 127601 131136 1066 1674 609 0 27.775116555515 3404.7341355631 57532.296697073
2126	30481038 20031 127600 131136 1065 1674 610 1217.0170466742 2120.6321884235 1099643.7934093 2020612548.5607
2125	30501069 20088 127600 131136 1065 1674 610 205.61026919552 2450.62007078 1263381.6960421 2875881520.2407
2136	30521157 16721 127609 131142 1069 1680 612 0.973 18.956895145855 1145.1403269843 5104.6536712139
2135	30537878 18265 127609 131142 1069 1680 612 -2.5 2.9059285480145 3.6122517737316 419.23193623055
2134	30556143 17675 127608 131142 1068 1680 613 0 27.766035954823 3400.5977141245 57233.631819497
2133	30573818 20231 127605 131142 1067 1680 614 1217.3050819878 2120.818455006 1107677.4641127 2036300989.6592
2132	30594049 20149 127605 131142 1067 1680 614 207.7646450632 2450.6428554952 1274452.7061447 2899220143.8265
2150	30614198 16748 127626 131146 1073 1684 612 0.4414301274658 17.535378053554 1136.859473458 4888.6619768851
2149	30630946 18251 127626 131146 1073 1684 612 -2.5 2.7279723159013 5.1553913405894 416.43691797807
2148	30649197 17704 127624 131146 1072 1684 613 0 27.767186788495 3405.7846265668 56404.045808593
2147	30666901 20221 127619 131146 1071 1684 614 1216.3523536297 2120.7610295136 1106302.2200344 2032535890.3334
2146	30687122 20215 127619 131146 1071 1684 614 205.23374454572 2450.56148268 1273056.0376342 2901110715.6289
2143	30707337 16854 127619 131149 1071 1687 617 0.973 17.664405732583 1136.8249949303 4805.0233659951
2142	30724191 18401 127619 131149 1071 1687 617 -2.5 2.8562266484962 4.4581616154627 397.36309515496
2141	30742592 17883 127614 131149 1070 1687 618 0 27.457560898456 3403.2518524842 55847.827199341
2140	30760475 20392 127609 131149 1069 1687 619 1218.7597481301 2120.7606442552 1112680.5859381 2038912754.4031
2139	30780867 20296 127609 131149 1069 1687 619 205.98954166111 2450.5255798514 1275326.3227017 2896433507.441
