version 2
run debug-0-20161221-13:21:05-28532
attr configname debug
attr datetime 20161221-13:21:05
attr experiment debug
attr inifile omnetpp.ini
attr iterationvars ""
attr iterationvars2 $repetition=0
attr measurement ""
attr network RSUExampleScenario
attr processid 28532
attr repetition 0
attr replication #0
attr resultdir results
attr runnumber 0
attr seedset 0
param **.coreDebug false
param **.debug false
param *.**.nic.mac1609_4.bitrate 27Mbps
param *.**.nic.mac1609_4.txPower 20mW
param *.**.nic.mac1609_4.useServiceChannel false
param *.**.nic.phy80211p.analogueModels "xmldoc(\"config.xml\")"
param *.**.nic.phy80211p.decider "xmldoc(\"config.xml\")"
param *.**.nic.phy80211p.sensitivity -89dBm
param *.**.nic.phy80211p.thermalNoise -110dBm
param *.**.nic.phy80211p.usePropagationDelay true
param *.**.nic.phy80211p.useThermalNoise true
param *.annotations.draw false
param *.connectionManager.alpha 2.0
param *.connectionManager.carrierFrequency "5.890e9 Hz"
param *.connectionManager.pMax 5mW
param *.connectionManager.sat -89dBm
param *.connectionManager.sendDirect true
param *.manager.autoShutdown true
param *.manager.host "\"localhost\""
param *.manager.launchConfig "xmldoc(\"erlangen.launchd.xml\")"
param *.manager.margin 25
param *.manager.moduleDisplayString "\"\""
param *.manager.moduleName "\"node\""
param *.manager.moduleType "\"org.car2x.veins.nodes.Car\""
param *.manager.port 9999
param *.manager.updateInterval 1s
param *.node[*].appl.beaconInterval 1s
param *.node[*].appl.beaconPriority 3
param *.node[*].appl.dataOnSch false
param *.node[*].appl.dataPriority 2
param *.node[*].appl.debug false
param *.node[*].appl.headerLength "256 bit"
param *.node[*].appl.maxOffset 0.005s
param *.node[*].appl.sendBeacons false
param *.node[*].appl.sendData true
param *.node[*].applType "\"TraCIDemo11p\""
param *.node[*].mobilityType "\"TraCIMobility\""
param *.node[*].mobilityType.debug true
param *.node[*].veinsmobility.accidentCount 5
param *.node[*].veinsmobility.accidentDuration 43s
param *.node[*].veinsmobility.accidentStart 85s
param *.node[*].veinsmobility.x 0
param *.node[*].veinsmobility.y 0
param *.node[*].veinsmobility.z 1.895
param *.node[*].veinsmobilityType "\"org.car2x.veins.modules.mobility.traci.TraCIMobility\""
param *.node[*].veinsmobilityType.debug true
param *.obstacles.debug false
param *.obstacles.obstacles "xmldoc(\"config.xml\", \"//AnalogueModel[@type='SimpleObstacleShadowing']/obstacles\")"
param *.playgroundSizeX 2500m
param *.playgroundSizeY 2500m
param *.playgroundSizeZ 50m
param *.rsu[*].appl.beaconInterval 1s
param *.rsu[*].appl.beaconPriority 3
param *.rsu[*].appl.dataOnSch false
param *.rsu[*].appl.dataPriority 2
param *.rsu[*].appl.debug false
param *.rsu[*].appl.headerLength "256 bit"
param *.rsu[*].appl.maxOffset 0.005s
param *.rsu[*].appl.sendBeacons false
param *.rsu[*].appl.sendData true
param *.rsu[*].applType "\"TraCIDemoRSU11p\""
param *.rsu[0].mobility.x 2000
param *.rsu[0].mobility.y 2000
param *.rsu[0].mobility.z 3
param *.world.use2D false
param *.world.useTorus false

scalar RSUExampleScenario.node[0].nic.phy80211p 	busyTime 	0
scalar RSUExampleScenario.node[0].nic.mac1609_4 	ReceivedUnicastPackets 	0
scalar RSUExampleScenario.node[0].nic.mac1609_4 	ReceivedBroadcasts 	0
scalar RSUExampleScenario.node[0].nic.mac1609_4 	SentPackets 	1
scalar RSUExampleScenario.node[0].nic.mac1609_4 	SNIRLostPackets 	0
scalar RSUExampleScenario.node[0].nic.mac1609_4 	RXTXLostPackets 	0
scalar RSUExampleScenario.node[0].nic.mac1609_4 	TotalLostPackets 	0
scalar RSUExampleScenario.node[0].nic.mac1609_4 	DroppedPacketsInMac 	0
scalar RSUExampleScenario.node[0].nic.mac1609_4 	TooLittleTime 	0
scalar RSUExampleScenario.node[0].nic.mac1609_4 	TimesIntoBackoff 	1
scalar RSUExampleScenario.node[0].nic.mac1609_4 	SlotsBackoff 	6
scalar RSUExampleScenario.node[0].nic.mac1609_4 	NumInternalContention 	0
scalar RSUExampleScenario.node[0].nic.mac1609_4 	totalBusyTime 	9.7e-05
scalar RSUExampleScenario.node[0].veinsmobility 	startTime 	1
scalar RSUExampleScenario.node[0].veinsmobility 	totalTime 	328
scalar RSUExampleScenario.node[0].veinsmobility 	stopTime 	330
scalar RSUExampleScenario.node[0].veinsmobility 	minSpeed 	0
scalar RSUExampleScenario.node[0].veinsmobility 	maxSpeed 	27.768710480146
scalar RSUExampleScenario.node[0].veinsmobility 	totalDistance 	3396.0160368126
scalar RSUExampleScenario.node[0].veinsmobility 	totalCO2Emission 	949.4549230127
scalar RSUExampleScenario.node[2].nic.phy80211p 	busyTime 	4.0909090909091e-06
scalar RSUExampleScenario.node[2].nic.mac1609_4 	ReceivedUnicastPackets 	0
scalar RSUExampleScenario.node[2].nic.mac1609_4 	ReceivedBroadcasts 	11
scalar RSUExampleScenario.node[2].nic.mac1609_4 	SentPackets 	1
scalar RSUExampleScenario.node[2].nic.mac1609_4 	SNIRLostPackets 	4
scalar RSUExampleScenario.node[2].nic.mac1609_4 	RXTXLostPackets 	0
scalar RSUExampleScenario.node[2].nic.mac1609_4 	TotalLostPackets 	4
scalar RSUExampleScenario.node[2].nic.mac1609_4 	DroppedPacketsInMac 	0
scalar RSUExampleScenario.node[2].nic.mac1609_4 	TooLittleTime 	0
scalar RSUExampleScenario.node[2].nic.mac1609_4 	TimesIntoBackoff 	1
scalar RSUExampleScenario.node[2].nic.mac1609_4 	SlotsBackoff 	4
scalar RSUExampleScenario.node[2].nic.mac1609_4 	NumInternalContention 	0
scalar RSUExampleScenario.node[2].nic.mac1609_4 	totalBusyTime 	0.001345
scalar RSUExampleScenario.node[2].veinsmobility 	startTime 	5
scalar RSUExampleScenario.node[2].veinsmobility 	totalTime 	351
scalar RSUExampleScenario.node[2].veinsmobility 	stopTime 	357
scalar RSUExampleScenario.node[2].veinsmobility 	minSpeed 	0
scalar RSUExampleScenario.node[2].veinsmobility 	maxSpeed 	27.777677725879
scalar RSUExampleScenario.node[2].veinsmobility 	totalDistance 	3397.289884102
scalar RSUExampleScenario.node[2].veinsmobility 	totalCO2Emission 	914.10394436377
scalar RSUExampleScenario.node[3].nic.phy80211p 	busyTime 	3.6e-06
scalar RSUExampleScenario.node[3].nic.mac1609_4 	ReceivedUnicastPackets 	0
scalar RSUExampleScenario.node[3].nic.mac1609_4 	ReceivedBroadcasts 	11
scalar RSUExampleScenario.node[3].nic.mac1609_4 	SentPackets 	1
scalar RSUExampleScenario.node[3].nic.mac1609_4 	SNIRLostPackets 	4
scalar RSUExampleScenario.node[3].nic.mac1609_4 	RXTXLostPackets 	0
scalar RSUExampleScenario.node[3].nic.mac1609_4 	TotalLostPackets 	4
scalar RSUExampleScenario.node[3].nic.mac1609_4 	DroppedPacketsInMac 	0
scalar RSUExampleScenario.node[3].nic.mac1609_4 	TooLittleTime 	0
scalar RSUExampleScenario.node[3].nic.mac1609_4 	TimesIntoBackoff 	1
scalar RSUExampleScenario.node[3].nic.mac1609_4 	SlotsBackoff 	7
scalar RSUExampleScenario.node[3].nic.mac1609_4 	NumInternalContention 	0
scalar RSUExampleScenario.node[3].nic.mac1609_4 	totalBusyTime 	0.001345
scalar RSUExampleScenario.node[3].veinsmobility 	startTime 	7
scalar RSUExampleScenario.node[3].veinsmobility 	totalTime 	399
scalar RSUExampleScenario.node[3].veinsmobility 	stopTime 	407
scalar RSUExampleScenario.node[3].veinsmobility 	minSpeed 	0
scalar RSUExampleScenario.node[3].veinsmobility 	maxSpeed 	27.750909077181
scalar RSUExampleScenario.node[3].veinsmobility 	totalDistance 	3398.61882225
scalar RSUExampleScenario.node[3].veinsmobility 	totalCO2Emission 	977.55130602134
scalar RSUExampleScenario.node[1].nic.phy80211p 	busyTime 	2.9714285714286e-06
scalar RSUExampleScenario.node[1].nic.mac1609_4 	ReceivedUnicastPackets 	0
scalar RSUExampleScenario.node[1].nic.mac1609_4 	ReceivedBroadcasts 	11
scalar RSUExampleScenario.node[1].nic.mac1609_4 	SentPackets 	1
scalar RSUExampleScenario.node[1].nic.mac1609_4 	SNIRLostPackets 	2
scalar RSUExampleScenario.node[1].nic.mac1609_4 	RXTXLostPackets 	0
scalar RSUExampleScenario.node[1].nic.mac1609_4 	TotalLostPackets 	2
scalar RSUExampleScenario.node[1].nic.mac1609_4 	DroppedPacketsInMac 	0
scalar RSUExampleScenario.node[1].nic.mac1609_4 	TooLittleTime 	0
scalar RSUExampleScenario.node[1].nic.mac1609_4 	TimesIntoBackoff 	1
scalar RSUExampleScenario.node[1].nic.mac1609_4 	SlotsBackoff 	0
scalar RSUExampleScenario.node[1].nic.mac1609_4 	NumInternalContention 	0
scalar RSUExampleScenario.node[1].nic.mac1609_4 	totalBusyTime 	0.001249
scalar RSUExampleScenario.node[1].veinsmobility 	startTime 	3
scalar RSUExampleScenario.node[1].veinsmobility 	totalTime 	419
scalar RSUExampleScenario.node[1].veinsmobility 	stopTime 	423
scalar RSUExampleScenario.node[1].veinsmobility 	minSpeed 	0
scalar RSUExampleScenario.node[1].veinsmobility 	maxSpeed 	27.778188040318
scalar RSUExampleScenario.node[1].veinsmobility 	totalDistance 	3395.5578680603
scalar RSUExampleScenario.node[1].veinsmobility 	totalCO2Emission 	948.20862203426
scalar RSUExampleScenario.node[5].nic.phy80211p 	busyTime 	3.3832599118943e-06
scalar RSUExampleScenario.node[5].nic.mac1609_4 	ReceivedUnicastPackets 	0
scalar RSUExampleScenario.node[5].nic.mac1609_4 	ReceivedBroadcasts 	12
scalar RSUExampleScenario.node[5].nic.mac1609_4 	SentPackets 	1
scalar RSUExampleScenario.node[5].nic.mac1609_4 	SNIRLostPackets 	4
scalar RSUExampleScenario.node[5].nic.mac1609_4 	RXTXLostPackets 	0
scalar RSUExampleScenario.node[5].nic.mac1609_4 	TotalLostPackets 	4
scalar RSUExampleScenario.node[5].nic.mac1609_4 	DroppedPacketsInMac 	0
scalar RSUExampleScenario.node[5].nic.mac1609_4 	TooLittleTime 	0
scalar RSUExampleScenario.node[5].nic.mac1609_4 	TimesIntoBackoff 	2
scalar RSUExampleScenario.node[5].nic.mac1609_4 	SlotsBackoff 	9
scalar RSUExampleScenario.node[5].nic.mac1609_4 	NumInternalContention 	0
scalar RSUExampleScenario.node[5].nic.mac1609_4 	totalBusyTime 	0.001441
scalar RSUExampleScenario.node[5].veinsmobility 	startTime 	10
scalar RSUExampleScenario.node[5].veinsmobility 	totalTime 	453
scalar RSUExampleScenario.node[5].veinsmobility 	stopTime 	464
scalar RSUExampleScenario.node[5].veinsmobility 	minSpeed 	0
scalar RSUExampleScenario.node[5].veinsmobility 	maxSpeed 	27.763528873604
scalar RSUExampleScenario.node[5].veinsmobility 	totalDistance 	3402.2472774558
scalar RSUExampleScenario.node[5].veinsmobility 	totalCO2Emission 	1144.5146863098
scalar RSUExampleScenario.node[8].nic.phy80211p 	busyTime 	3.4576271186441e-06
scalar RSUExampleScenario.node[8].nic.mac1609_4 	ReceivedUnicastPackets 	0
scalar RSUExampleScenario.node[8].nic.mac1609_4 	ReceivedBroadcasts 	11
scalar RSUExampleScenario.node[8].nic.mac1609_4 	SentPackets 	1
scalar RSUExampleScenario.node[8].nic.mac1609_4 	SNIRLostPackets 	6
scalar RSUExampleScenario.node[8].nic.mac1609_4 	RXTXLostPackets 	0
scalar RSUExampleScenario.node[8].nic.mac1609_4 	TotalLostPackets 	6
scalar RSUExampleScenario.node[8].nic.mac1609_4 	DroppedPacketsInMac 	0
scalar RSUExampleScenario.node[8].nic.mac1609_4 	TooLittleTime 	0
scalar RSUExampleScenario.node[8].nic.mac1609_4 	TimesIntoBackoff 	2
scalar RSUExampleScenario.node[8].nic.mac1609_4 	SlotsBackoff 	9
scalar RSUExampleScenario.node[8].nic.mac1609_4 	NumInternalContention 	0
scalar RSUExampleScenario.node[8].nic.mac1609_4 	totalBusyTime 	0.001441129498
scalar RSUExampleScenario.node[8].veinsmobility 	startTime 	16
scalar RSUExampleScenario.node[8].veinsmobility 	totalTime 	471
scalar RSUExampleScenario.node[8].veinsmobility 	stopTime 	488
scalar RSUExampleScenario.node[8].veinsmobility 	minSpeed 	0
scalar RSUExampleScenario.node[8].veinsmobility 	maxSpeed 	27.773561144182
scalar RSUExampleScenario.node[8].veinsmobility 	totalDistance 	3397.7351668823
scalar RSUExampleScenario.node[8].veinsmobility 	totalCO2Emission 	1063.0694268122
scalar RSUExampleScenario.node[6].nic.phy80211p 	busyTime 	3.2062868369352e-06
scalar RSUExampleScenario.node[6].nic.mac1609_4 	ReceivedUnicastPackets 	0
scalar RSUExampleScenario.node[6].nic.mac1609_4 	ReceivedBroadcasts 	11
scalar RSUExampleScenario.node[6].nic.mac1609_4 	SentPackets 	1
scalar RSUExampleScenario.node[6].nic.mac1609_4 	SNIRLostPackets 	6
scalar RSUExampleScenario.node[6].nic.mac1609_4 	RXTXLostPackets 	0
scalar RSUExampleScenario.node[6].nic.mac1609_4 	TotalLostPackets 	6
scalar RSUExampleScenario.node[6].nic.mac1609_4 	DroppedPacketsInMac 	0
scalar RSUExampleScenario.node[6].nic.mac1609_4 	TooLittleTime 	0
scalar RSUExampleScenario.node[6].nic.mac1609_4 	TimesIntoBackoff 	2
scalar RSUExampleScenario.node[6].nic.mac1609_4 	SlotsBackoff 	6
scalar RSUExampleScenario.node[6].nic.mac1609_4 	NumInternalContention 	0
scalar RSUExampleScenario.node[6].nic.mac1609_4 	totalBusyTime 	0.001441
scalar RSUExampleScenario.node[6].veinsmobility 	startTime 	12
scalar RSUExampleScenario.node[6].veinsmobility 	totalTime 	508
scalar RSUExampleScenario.node[6].veinsmobility 	stopTime 	521
scalar RSUExampleScenario.node[6].veinsmobility 	minSpeed 	0
scalar RSUExampleScenario.node[6].veinsmobility 	maxSpeed 	27.779343798762
scalar RSUExampleScenario.node[6].veinsmobility 	totalDistance 	3396.0148650514
scalar RSUExampleScenario.node[6].veinsmobility 	totalCO2Emission 	1024.7813225203
scalar RSUExampleScenario.node[9].nic.phy80211p 	busyTime 	3.0295857988166e-06
scalar RSUExampleScenario.node[9].nic.mac1609_4 	ReceivedUnicastPackets 	0
scalar RSUExampleScenario.node[9].nic.mac1609_4 	ReceivedBroadcasts 	12
scalar RSUExampleScenario.node[9].nic.mac1609_4 	SentPackets 	1
scalar RSUExampleScenario.node[9].nic.mac1609_4 	SNIRLostPackets 	4
scalar RSUExampleScenario.node[9].nic.mac1609_4 	RXTXLostPackets 	1
scalar RSUExampleScenario.node[9].nic.mac1609_4 	TotalLostPackets 	5
scalar RSUExampleScenario.node[9].nic.mac1609_4 	DroppedPacketsInMac 	0
scalar RSUExampleScenario.node[9].nic.mac1609_4 	TooLittleTime 	0
scalar RSUExampleScenario.node[9].nic.mac1609_4 	TimesIntoBackoff 	2
scalar RSUExampleScenario.node[9].nic.mac1609_4 	SlotsBackoff 	10
scalar RSUExampleScenario.node[9].nic.mac1609_4 	NumInternalContention 	0
scalar RSUExampleScenario.node[9].nic.mac1609_4 	totalBusyTime 	0.001441129512
scalar RSUExampleScenario.node[9].veinsmobility 	startTime 	17
scalar RSUExampleScenario.node[9].veinsmobility 	totalTime 	506
scalar RSUExampleScenario.node[9].veinsmobility 	stopTime 	524
scalar RSUExampleScenario.node[9].veinsmobility 	minSpeed 	0
scalar RSUExampleScenario.node[9].veinsmobility 	maxSpeed 	27.76204985423
scalar RSUExampleScenario.node[9].veinsmobility 	totalDistance 	3405.0266349866
scalar RSUExampleScenario.node[9].veinsmobility 	totalCO2Emission 	1142.5210138888
scalar RSUExampleScenario.node[4].nic.phy80211p 	busyTime 	2.7799227799228e-06
scalar RSUExampleScenario.node[4].nic.mac1609_4 	ReceivedUnicastPackets 	0
scalar RSUExampleScenario.node[4].nic.mac1609_4 	ReceivedBroadcasts 	11
scalar RSUExampleScenario.node[4].nic.mac1609_4 	SentPackets 	1
scalar RSUExampleScenario.node[4].nic.mac1609_4 	SNIRLostPackets 	4
scalar RSUExampleScenario.node[4].nic.mac1609_4 	RXTXLostPackets 	0
scalar RSUExampleScenario.node[4].nic.mac1609_4 	TotalLostPackets 	4
scalar RSUExampleScenario.node[4].nic.mac1609_4 	DroppedPacketsInMac 	0
scalar RSUExampleScenario.node[4].nic.mac1609_4 	TooLittleTime 	0
scalar RSUExampleScenario.node[4].nic.mac1609_4 	TimesIntoBackoff 	1
scalar RSUExampleScenario.node[4].nic.mac1609_4 	SlotsBackoff 	0
scalar RSUExampleScenario.node[4].nic.mac1609_4 	NumInternalContention 	0
scalar RSUExampleScenario.node[4].nic.mac1609_4 	totalBusyTime 	0.001345
scalar RSUExampleScenario.node[4].veinsmobility 	startTime 	8
scalar RSUExampleScenario.node[4].veinsmobility 	totalTime 	517
scalar RSUExampleScenario.node[4].veinsmobility 	stopTime 	526
scalar RSUExampleScenario.node[4].veinsmobility 	minSpeed 	0
scalar RSUExampleScenario.node[4].veinsmobility 	maxSpeed 	27.75182667057
scalar RSUExampleScenario.node[4].veinsmobility 	totalDistance 	3397.4177878826
scalar RSUExampleScenario.node[4].veinsmobility 	totalCO2Emission 	1188.0234983374
scalar RSUExampleScenario.node[11].nic.phy80211p 	busyTime 	3.1937377690802e-06
scalar RSUExampleScenario.node[11].nic.mac1609_4 	ReceivedUnicastPackets 	0
scalar RSUExampleScenario.node[11].nic.mac1609_4 	ReceivedBroadcasts 	13
scalar RSUExampleScenario.node[11].nic.mac1609_4 	SentPackets 	1
scalar RSUExampleScenario.node[11].nic.mac1609_4 	SNIRLostPackets 	4
scalar RSUExampleScenario.node[11].nic.mac1609_4 	RXTXLostPackets 	1
scalar RSUExampleScenario.node[11].nic.mac1609_4 	TotalLostPackets 	5
scalar RSUExampleScenario.node[11].nic.mac1609_4 	DroppedPacketsInMac 	0
scalar RSUExampleScenario.node[11].nic.mac1609_4 	TooLittleTime 	0
scalar RSUExampleScenario.node[11].nic.mac1609_4 	TimesIntoBackoff 	2
scalar RSUExampleScenario.node[11].nic.mac1609_4 	SlotsBackoff 	2
scalar RSUExampleScenario.node[11].nic.mac1609_4 	NumInternalContention 	0
scalar RSUExampleScenario.node[11].nic.mac1609_4 	totalBusyTime 	0.001537000896
scalar RSUExampleScenario.node[11].veinsmobility 	startTime 	20
scalar RSUExampleScenario.node[11].veinsmobility 	totalTime 	510
scalar RSUExampleScenario.node[11].veinsmobility 	stopTime 	531
scalar RSUExampleScenario.node[11].veinsmobility 	minSpeed 	0
scalar RSUExampleScenario.node[11].veinsmobility 	maxSpeed 	27.749026262658
scalar RSUExampleScenario.node[11].veinsmobility 	totalDistance 	3392.5856014797
scalar RSUExampleScenario.node[11].veinsmobility 	totalCO2Emission 	1114.429618944
scalar RSUExampleScenario.node[14].nic.phy80211p 	busyTime 	3.7795275590551e-06
scalar RSUExampleScenario.node[14].nic.mac1609_4 	ReceivedUnicastPackets 	0
scalar RSUExampleScenario.node[14].nic.mac1609_4 	ReceivedBroadcasts 	14
scalar RSUExampleScenario.node[14].nic.mac1609_4 	SentPackets 	1
scalar RSUExampleScenario.node[14].nic.mac1609_4 	SNIRLostPackets 	6
scalar RSUExampleScenario.node[14].nic.mac1609_4 	RXTXLostPackets 	0
scalar RSUExampleScenario.node[14].nic.mac1609_4 	TotalLostPackets 	6
scalar RSUExampleScenario.node[14].nic.mac1609_4 	DroppedPacketsInMac 	0
scalar RSUExampleScenario.node[14].nic.mac1609_4 	TooLittleTime 	0
scalar RSUExampleScenario.node[14].nic.mac1609_4 	TimesIntoBackoff 	1
scalar RSUExampleScenario.node[14].nic.mac1609_4 	SlotsBackoff 	0
scalar RSUExampleScenario.node[14].nic.mac1609_4 	NumInternalContention 	0
scalar RSUExampleScenario.node[14].nic.mac1609_4 	totalBusyTime 	0.001729
scalar RSUExampleScenario.node[14].veinsmobility 	startTime 	27
scalar RSUExampleScenario.node[14].veinsmobility 	totalTime 	507
scalar RSUExampleScenario.node[14].veinsmobility 	stopTime 	535
scalar RSUExampleScenario.node[14].veinsmobility 	minSpeed 	0
scalar RSUExampleScenario.node[14].veinsmobility 	maxSpeed 	27.757903419025
scalar RSUExampleScenario.node[14].veinsmobility 	totalDistance 	3396.8738676877
scalar RSUExampleScenario.node[14].veinsmobility 	totalCO2Emission 	1178.5369648335
scalar RSUExampleScenario.node[7].nic.phy80211p 	busyTime 	3.1085714285714e-06
scalar RSUExampleScenario.node[7].nic.mac1609_4 	ReceivedUnicastPackets 	0
scalar RSUExampleScenario.node[7].nic.mac1609_4 	ReceivedBroadcasts 	11
scalar RSUExampleScenario.node[7].nic.mac1609_4 	SentPackets 	1
scalar RSUExampleScenario.node[7].nic.mac1609_4 	SNIRLostPackets 	6
scalar RSUExampleScenario.node[7].nic.mac1609_4 	RXTXLostPackets 	0
scalar RSUExampleScenario.node[7].nic.mac1609_4 	TotalLostPackets 	6
scalar RSUExampleScenario.node[7].nic.mac1609_4 	DroppedPacketsInMac 	0
scalar RSUExampleScenario.node[7].nic.mac1609_4 	TooLittleTime 	0
scalar RSUExampleScenario.node[7].nic.mac1609_4 	TimesIntoBackoff 	1
scalar RSUExampleScenario.node[7].nic.mac1609_4 	SlotsBackoff 	5
scalar RSUExampleScenario.node[7].nic.mac1609_4 	NumInternalContention 	0
scalar RSUExampleScenario.node[7].nic.mac1609_4 	totalBusyTime 	0.001441
scalar RSUExampleScenario.node[7].veinsmobility 	startTime 	14
scalar RSUExampleScenario.node[7].veinsmobility 	totalTime 	524
scalar RSUExampleScenario.node[7].veinsmobility 	stopTime 	539
scalar RSUExampleScenario.node[7].veinsmobility 	minSpeed 	0
scalar RSUExampleScenario.node[7].veinsmobility 	maxSpeed 	27.737601034408
scalar RSUExampleScenario.node[7].veinsmobility 	totalDistance 	3401.7641925429
scalar RSUExampleScenario.node[7].veinsmobility 	totalCO2Emission 	1158.8422269412
scalar RSUExampleScenario.node[10].nic.phy80211p 	busyTime 	3.1204588910134e-06
scalar RSUExampleScenario.node[10].nic.mac1609_4 	ReceivedUnicastPackets 	0
scalar RSUExampleScenario.node[10].nic.mac1609_4 	ReceivedBroadcasts 	11
scalar RSUExampleScenario.node[10].nic.mac1609_4 	SentPackets 	1
scalar RSUExampleScenario.node[10].nic.mac1609_4 	SNIRLostPackets 	6
scalar RSUExampleScenario.node[10].nic.mac1609_4 	RXTXLostPackets 	0
scalar RSUExampleScenario.node[10].nic.mac1609_4 	TotalLostPackets 	6
scalar RSUExampleScenario.node[10].nic.mac1609_4 	DroppedPacketsInMac 	0
scalar RSUExampleScenario.node[10].nic.mac1609_4 	TooLittleTime 	0
scalar RSUExampleScenario.node[10].nic.mac1609_4 	TimesIntoBackoff 	1
scalar RSUExampleScenario.node[10].nic.mac1609_4 	SlotsBackoff 	5
scalar RSUExampleScenario.node[10].nic.mac1609_4 	NumInternalContention 	0
scalar RSUExampleScenario.node[10].nic.mac1609_4 	totalBusyTime 	0.001441069735
scalar RSUExampleScenario.node[10].veinsmobility 	startTime 	19
scalar RSUExampleScenario.node[10].veinsmobility 	totalTime 	522
scalar RSUExampleScenario.node[10].veinsmobility 	stopTime 	542
scalar RSUExampleScenario.node[10].veinsmobility 	minSpeed 	0
scalar RSUExampleScenario.node[10].veinsmobility 	maxSpeed 	27.751222434836
scalar RSUExampleScenario.node[10].veinsmobility 	totalDistance 	3403.0332921079
scalar RSUExampleScenario.node[10].veinsmobility 	totalCO2Emission 	1157.5945390211
scalar RSUExampleScenario.node[16].nic.phy80211p 	busyTime 	2.988326848249e-06
scalar RSUExampleScenario.node[16].nic.mac1609_4 	ReceivedUnicastPackets 	0
scalar RSUExampleScenario.node[16].nic.mac1609_4 	ReceivedBroadcasts 	12
scalar RSUExampleScenario.node[16].nic.mac1609_4 	SentPackets 	1
scalar RSUExampleScenario.node[16].nic.mac1609_4 	SNIRLostPackets 	4
scalar RSUExampleScenario.node[16].nic.mac1609_4 	RXTXLostPackets 	1
scalar RSUExampleScenario.node[16].nic.mac1609_4 	TotalLostPackets 	5
scalar RSUExampleScenario.node[16].nic.mac1609_4 	DroppedPacketsInMac 	0
scalar RSUExampleScenario.node[16].nic.mac1609_4 	TooLittleTime 	0
scalar RSUExampleScenario.node[16].nic.mac1609_4 	TimesIntoBackoff 	1
scalar RSUExampleScenario.node[16].nic.mac1609_4 	SlotsBackoff 	2
scalar RSUExampleScenario.node[16].nic.mac1609_4 	NumInternalContention 	0
scalar RSUExampleScenario.node[16].nic.mac1609_4 	totalBusyTime 	0.001441
scalar RSUExampleScenario.node[16].veinsmobility 	startTime 	30
scalar RSUExampleScenario.node[16].veinsmobility 	totalTime 	513
scalar RSUExampleScenario.node[16].veinsmobility 	stopTime 	544
scalar RSUExampleScenario.node[16].veinsmobility 	minSpeed 	0
scalar RSUExampleScenario.node[16].veinsmobility 	maxSpeed 	27.670238796091
scalar RSUExampleScenario.node[16].veinsmobility 	totalDistance 	3396.5392798017
scalar RSUExampleScenario.node[16].veinsmobility 	totalCO2Emission 	1145.7733243673
scalar RSUExampleScenario.node[13].nic.phy80211p 	busyTime 	3.8694817658349e-06
scalar RSUExampleScenario.node[13].nic.mac1609_4 	ReceivedUnicastPackets 	0
scalar RSUExampleScenario.node[13].nic.mac1609_4 	ReceivedBroadcasts 	15
scalar RSUExampleScenario.node[13].nic.mac1609_4 	SentPackets 	1
scalar RSUExampleScenario.node[13].nic.mac1609_4 	SNIRLostPackets 	6
scalar RSUExampleScenario.node[13].nic.mac1609_4 	RXTXLostPackets 	0
scalar RSUExampleScenario.node[13].nic.mac1609_4 	TotalLostPackets 	6
scalar RSUExampleScenario.node[13].nic.mac1609_4 	DroppedPacketsInMac 	0
scalar RSUExampleScenario.node[13].nic.mac1609_4 	TooLittleTime 	0
scalar RSUExampleScenario.node[13].nic.mac1609_4 	TimesIntoBackoff 	1
scalar RSUExampleScenario.node[13].nic.mac1609_4 	SlotsBackoff 	5
scalar RSUExampleScenario.node[13].nic.mac1609_4 	NumInternalContention 	0
scalar RSUExampleScenario.node[13].nic.mac1609_4 	totalBusyTime 	0.001825
scalar RSUExampleScenario.node[13].veinsmobility 	startTime 	25
scalar RSUExampleScenario.node[13].veinsmobility 	totalTime 	520
scalar RSUExampleScenario.node[13].veinsmobility 	stopTime 	546
scalar RSUExampleScenario.node[13].veinsmobility 	minSpeed 	0
scalar RSUExampleScenario.node[13].veinsmobility 	maxSpeed 	27.723767516296
scalar RSUExampleScenario.node[13].veinsmobility 	totalDistance 	3391.0177574113
scalar RSUExampleScenario.node[13].veinsmobility 	totalCO2Emission 	1180.9325254837
scalar RSUExampleScenario.node[15].nic.phy80211p 	busyTime 	3.6363636363636e-06
scalar RSUExampleScenario.node[15].nic.mac1609_4 	ReceivedUnicastPackets 	0
scalar RSUExampleScenario.node[15].nic.mac1609_4 	ReceivedBroadcasts 	14
scalar RSUExampleScenario.node[15].nic.mac1609_4 	SentPackets 	1
scalar RSUExampleScenario.node[15].nic.mac1609_4 	SNIRLostPackets 	6
scalar RSUExampleScenario.node[15].nic.mac1609_4 	RXTXLostPackets 	0
scalar RSUExampleScenario.node[15].nic.mac1609_4 	TotalLostPackets 	6
scalar RSUExampleScenario.node[15].nic.mac1609_4 	DroppedPacketsInMac 	0
scalar RSUExampleScenario.node[15].nic.mac1609_4 	TooLittleTime 	0
scalar RSUExampleScenario.node[15].nic.mac1609_4 	TimesIntoBackoff 	1
scalar RSUExampleScenario.node[15].nic.mac1609_4 	SlotsBackoff 	5
scalar RSUExampleScenario.node[15].nic.mac1609_4 	NumInternalContention 	0
scalar RSUExampleScenario.node[15].nic.mac1609_4 	totalBusyTime 	0.001729
scalar RSUExampleScenario.node[15].veinsmobility 	startTime 	28
scalar RSUExampleScenario.node[15].veinsmobility 	totalTime 	527
scalar RSUExampleScenario.node[15].veinsmobility 	stopTime 	556
scalar RSUExampleScenario.node[15].veinsmobility 	minSpeed 	0
scalar RSUExampleScenario.node[15].veinsmobility 	maxSpeed 	27.745126087861
scalar RSUExampleScenario.node[15].veinsmobility 	totalDistance 	3396.8238275769
scalar RSUExampleScenario.node[15].veinsmobility 	totalCO2Emission 	1171.5666399975
scalar RSUExampleScenario.node[19].nic.phy80211p 	busyTime 	2.0114285714286e-06
scalar RSUExampleScenario.node[19].nic.mac1609_4 	ReceivedUnicastPackets 	0
scalar RSUExampleScenario.node[19].nic.mac1609_4 	ReceivedBroadcasts 	9
scalar RSUExampleScenario.node[19].nic.mac1609_4 	SentPackets 	1
scalar RSUExampleScenario.node[19].nic.mac1609_4 	SNIRLostPackets 	2
scalar RSUExampleScenario.node[19].nic.mac1609_4 	RXTXLostPackets 	0
scalar RSUExampleScenario.node[19].nic.mac1609_4 	TotalLostPackets 	2
scalar RSUExampleScenario.node[19].nic.mac1609_4 	DroppedPacketsInMac 	0
scalar RSUExampleScenario.node[19].nic.mac1609_4 	TooLittleTime 	0
scalar RSUExampleScenario.node[19].nic.mac1609_4 	TimesIntoBackoff 	2
scalar RSUExampleScenario.node[19].nic.mac1609_4 	SlotsBackoff 	9
scalar RSUExampleScenario.node[19].nic.mac1609_4 	NumInternalContention 	0
scalar RSUExampleScenario.node[19].nic.mac1609_4 	totalBusyTime 	0.001057
scalar RSUExampleScenario.node[19].veinsmobility 	startTime 	34
scalar RSUExampleScenario.node[19].veinsmobility 	totalTime 	524
scalar RSUExampleScenario.node[19].veinsmobility 	stopTime 	559
scalar RSUExampleScenario.node[19].veinsmobility 	minSpeed 	0
scalar RSUExampleScenario.node[19].veinsmobility 	maxSpeed 	27.758434422892
scalar RSUExampleScenario.node[19].veinsmobility 	totalDistance 	3400.3839855726
scalar RSUExampleScenario.node[19].veinsmobility 	totalCO2Emission 	1196.4049852558
scalar RSUExampleScenario.node[17].nic.phy80211p 	busyTime 	2.7169811320755e-06
scalar RSUExampleScenario.node[17].nic.mac1609_4 	ReceivedUnicastPackets 	0
scalar RSUExampleScenario.node[17].nic.mac1609_4 	ReceivedBroadcasts 	11
scalar RSUExampleScenario.node[17].nic.mac1609_4 	SentPackets 	1
scalar RSUExampleScenario.node[17].nic.mac1609_4 	SNIRLostPackets 	4
scalar RSUExampleScenario.node[17].nic.mac1609_4 	RXTXLostPackets 	1
scalar RSUExampleScenario.node[17].nic.mac1609_4 	TotalLostPackets 	5
scalar RSUExampleScenario.node[17].nic.mac1609_4 	DroppedPacketsInMac 	0
scalar RSUExampleScenario.node[17].nic.mac1609_4 	TooLittleTime 	0
scalar RSUExampleScenario.node[17].nic.mac1609_4 	TimesIntoBackoff 	1
scalar RSUExampleScenario.node[17].nic.mac1609_4 	SlotsBackoff 	7
scalar RSUExampleScenario.node[17].nic.mac1609_4 	NumInternalContention 	0
scalar RSUExampleScenario.node[17].nic.mac1609_4 	totalBusyTime 	0.001345
scalar RSUExampleScenario.node[17].veinsmobility 	startTime 	31
scalar RSUExampleScenario.node[17].veinsmobility 	totalTime 	529
scalar RSUExampleScenario.node[17].veinsmobility 	stopTime 	561
scalar RSUExampleScenario.node[17].veinsmobility 	minSpeed 	0
scalar RSUExampleScenario.node[17].veinsmobility 	maxSpeed 	27.759899032293
scalar RSUExampleScenario.node[17].veinsmobility 	totalDistance 	3399.2013216093
scalar RSUExampleScenario.node[17].veinsmobility 	totalCO2Emission 	1189.8802408292
scalar RSUExampleScenario.node[12].nic.phy80211p 	busyTime 	3.5744680851064e-06
scalar RSUExampleScenario.node[12].nic.mac1609_4 	ReceivedUnicastPackets 	0
scalar RSUExampleScenario.node[12].nic.mac1609_4 	ReceivedBroadcasts 	15
scalar RSUExampleScenario.node[12].nic.mac1609_4 	SentPackets 	1
scalar RSUExampleScenario.node[12].nic.mac1609_4 	SNIRLostPackets 	6
scalar RSUExampleScenario.node[12].nic.mac1609_4 	RXTXLostPackets 	0
scalar RSUExampleScenario.node[12].nic.mac1609_4 	TotalLostPackets 	6
scalar RSUExampleScenario.node[12].nic.mac1609_4 	DroppedPacketsInMac 	0
scalar RSUExampleScenario.node[12].nic.mac1609_4 	TooLittleTime 	0
scalar RSUExampleScenario.node[12].nic.mac1609_4 	TimesIntoBackoff 	1
scalar RSUExampleScenario.node[12].nic.mac1609_4 	SlotsBackoff 	7
scalar RSUExampleScenario.node[12].nic.mac1609_4 	NumInternalContention 	0
scalar RSUExampleScenario.node[12].nic.mac1609_4 	totalBusyTime 	0.001825
scalar RSUExampleScenario.node[12].veinsmobility 	startTime 	23
scalar RSUExampleScenario.node[12].veinsmobility 	totalTime 	563
scalar RSUExampleScenario.node[12].veinsmobility 	stopTime 	587
scalar RSUExampleScenario.node[12].veinsmobility 	minSpeed 	0
scalar RSUExampleScenario.node[12].veinsmobility 	maxSpeed 	27.755570773735
scalar RSUExampleScenario.node[12].veinsmobility 	totalDistance 	3399.8167549433
scalar RSUExampleScenario.node[12].veinsmobility 	totalCO2Emission 	1064.9425130825
scalar RSUExampleScenario.node[18].nic.phy80211p 	busyTime 	1.8992805755396e-06
scalar RSUExampleScenario.node[18].nic.mac1609_4 	ReceivedUnicastPackets 	0
scalar RSUExampleScenario.node[18].nic.mac1609_4 	ReceivedBroadcasts 	9
scalar RSUExampleScenario.node[18].nic.mac1609_4 	SentPackets 	1
scalar RSUExampleScenario.node[18].nic.mac1609_4 	SNIRLostPackets 	2
scalar RSUExampleScenario.node[18].nic.mac1609_4 	RXTXLostPackets 	0
scalar RSUExampleScenario.node[18].nic.mac1609_4 	TotalLostPackets 	2
scalar RSUExampleScenario.node[18].nic.mac1609_4 	DroppedPacketsInMac 	0
scalar RSUExampleScenario.node[18].nic.mac1609_4 	TooLittleTime 	0
scalar RSUExampleScenario.node[18].nic.mac1609_4 	TimesIntoBackoff 	1
scalar RSUExampleScenario.node[18].nic.mac1609_4 	SlotsBackoff 	6
scalar RSUExampleScenario.node[18].nic.mac1609_4 	NumInternalContention 	0
scalar RSUExampleScenario.node[18].nic.mac1609_4 	totalBusyTime 	0.001057
scalar RSUExampleScenario.node[18].veinsmobility 	startTime 	33
scalar RSUExampleScenario.node[18].veinsmobility 	totalTime 	555
scalar RSUExampleScenario.node[18].veinsmobility 	stopTime 	589
scalar RSUExampleScenario.node[18].veinsmobility 	minSpeed 	0
scalar RSUExampleScenario.node[18].veinsmobility 	maxSpeed 	27.715476451851
scalar RSUExampleScenario.node[18].veinsmobility 	totalDistance 	3400.0017619386
scalar RSUExampleScenario.node[18].veinsmobility 	totalCO2Emission 	1199.3695760044
scalar RSUExampleScenario.node[39].nic.phy80211p 	busyTime 	6.8439306358382e-06
scalar RSUExampleScenario.node[39].nic.mac1609_4 	ReceivedUnicastPackets 	0
scalar RSUExampleScenario.node[39].nic.mac1609_4 	ReceivedBroadcasts 	33
scalar RSUExampleScenario.node[39].nic.mac1609_4 	SentPackets 	1
scalar RSUExampleScenario.node[39].nic.mac1609_4 	SNIRLostPackets 	4
scalar RSUExampleScenario.node[39].nic.mac1609_4 	RXTXLostPackets 	0
scalar RSUExampleScenario.node[39].nic.mac1609_4 	TotalLostPackets 	4
scalar RSUExampleScenario.node[39].nic.mac1609_4 	DroppedPacketsInMac 	0
scalar RSUExampleScenario.node[39].nic.mac1609_4 	TooLittleTime 	0
scalar RSUExampleScenario.node[39].nic.mac1609_4 	TimesIntoBackoff 	1
scalar RSUExampleScenario.node[39].nic.mac1609_4 	SlotsBackoff 	7
scalar RSUExampleScenario.node[39].nic.mac1609_4 	NumInternalContention 	0
scalar RSUExampleScenario.node[39].nic.mac1609_4 	totalBusyTime 	0.003457
scalar RSUExampleScenario.node[39].veinsmobility 	startTime 	72
scalar RSUExampleScenario.node[39].veinsmobility 	totalTime 	518
scalar RSUExampleScenario.node[39].veinsmobility 	stopTime 	591
scalar RSUExampleScenario.node[39].veinsmobility 	minSpeed 	0
scalar RSUExampleScenario.node[39].veinsmobility 	maxSpeed 	27.7795122342
scalar RSUExampleScenario.node[39].veinsmobility 	totalDistance 	3393.0610097655
scalar RSUExampleScenario.node[39].veinsmobility 	totalCO2Emission 	1240.6442038336
scalar RSUExampleScenario.node[33].nic.phy80211p 	busyTime 	4.8539325842697e-06
scalar RSUExampleScenario.node[33].nic.mac1609_4 	ReceivedUnicastPackets 	0
scalar RSUExampleScenario.node[33].nic.mac1609_4 	ReceivedBroadcasts 	23
scalar RSUExampleScenario.node[33].nic.mac1609_4 	SentPackets 	1
scalar RSUExampleScenario.node[33].nic.mac1609_4 	SNIRLostPackets 	4
scalar RSUExampleScenario.node[33].nic.mac1609_4 	RXTXLostPackets 	0
scalar RSUExampleScenario.node[33].nic.mac1609_4 	TotalLostPackets 	4
scalar RSUExampleScenario.node[33].nic.mac1609_4 	DroppedPacketsInMac 	0
scalar RSUExampleScenario.node[33].nic.mac1609_4 	TooLittleTime 	0
scalar RSUExampleScenario.node[33].nic.mac1609_4 	TimesIntoBackoff 	1
scalar RSUExampleScenario.node[33].nic.mac1609_4 	SlotsBackoff 	2
scalar RSUExampleScenario.node[33].nic.mac1609_4 	NumInternalContention 	0
scalar RSUExampleScenario.node[33].nic.mac1609_4 	totalBusyTime 	0.002497031928
scalar RSUExampleScenario.node[33].veinsmobility 	startTime 	60
scalar RSUExampleScenario.node[33].veinsmobility 	totalTime 	533
scalar RSUExampleScenario.node[33].veinsmobility 	stopTime 	594
scalar RSUExampleScenario.node[33].veinsmobility 	minSpeed 	0
scalar RSUExampleScenario.node[33].veinsmobility 	maxSpeed 	27.762878675535
scalar RSUExampleScenario.node[33].veinsmobility 	totalDistance 	3402.9417047433
scalar RSUExampleScenario.node[33].veinsmobility 	totalCO2Emission 	1253.6165337212
scalar RSUExampleScenario.node[29].nic.phy80211p 	busyTime 	4.7734806629834e-06
scalar RSUExampleScenario.node[29].nic.mac1609_4 	ReceivedUnicastPackets 	0
scalar RSUExampleScenario.node[29].nic.mac1609_4 	ReceivedBroadcasts 	23
scalar RSUExampleScenario.node[29].nic.mac1609_4 	SentPackets 	1
scalar RSUExampleScenario.node[29].nic.mac1609_4 	SNIRLostPackets 	4
scalar RSUExampleScenario.node[29].nic.mac1609_4 	RXTXLostPackets 	0
scalar RSUExampleScenario.node[29].nic.mac1609_4 	TotalLostPackets 	4
scalar RSUExampleScenario.node[29].nic.mac1609_4 	DroppedPacketsInMac 	0
scalar RSUExampleScenario.node[29].nic.mac1609_4 	TooLittleTime 	0
scalar RSUExampleScenario.node[29].nic.mac1609_4 	TimesIntoBackoff 	1
scalar RSUExampleScenario.node[29].nic.mac1609_4 	SlotsBackoff 	1
scalar RSUExampleScenario.node[29].nic.mac1609_4 	NumInternalContention 	0
scalar RSUExampleScenario.node[29].nic.mac1609_4 	totalBusyTime 	0.002497
scalar RSUExampleScenario.node[29].veinsmobility 	startTime 	53
scalar RSUExampleScenario.node[29].veinsmobility 	totalTime 	542
scalar RSUExampleScenario.node[29].veinsmobility 	stopTime 	596
scalar RSUExampleScenario.node[29].veinsmobility 	minSpeed 	0
scalar RSUExampleScenario.node[29].veinsmobility 	maxSpeed 	16.663127341149
scalar RSUExampleScenario.node[29].veinsmobility 	totalDistance 	3252.3582299833
scalar RSUExampleScenario.node[29].veinsmobility 	totalCO2Emission 	1069.7089850955
scalar RSUExampleScenario.node[27].nic.phy80211p 	busyTime 	4.7127272727273e-06
scalar RSUExampleScenario.node[27].nic.mac1609_4 	ReceivedUnicastPackets 	0
scalar RSUExampleScenario.node[27].nic.mac1609_4 	ReceivedBroadcasts 	23
scalar RSUExampleScenario.node[27].nic.mac1609_4 	SentPackets 	1
scalar RSUExampleScenario.node[27].nic.mac1609_4 	SNIRLostPackets 	4
scalar RSUExampleScenario.node[27].nic.mac1609_4 	RXTXLostPackets 	0
scalar RSUExampleScenario.node[27].nic.mac1609_4 	TotalLostPackets 	4
scalar RSUExampleScenario.node[27].nic.mac1609_4 	DroppedPacketsInMac 	0
scalar RSUExampleScenario.node[27].nic.mac1609_4 	TooLittleTime 	0
scalar RSUExampleScenario.node[27].nic.mac1609_4 	TimesIntoBackoff 	1
scalar RSUExampleScenario.node[27].nic.mac1609_4 	SlotsBackoff 	2
scalar RSUExampleScenario.node[27].nic.mac1609_4 	NumInternalContention 	0
scalar RSUExampleScenario.node[27].nic.mac1609_4 	totalBusyTime 	0.002497
scalar RSUExampleScenario.node[27].veinsmobility 	startTime 	49
scalar RSUExampleScenario.node[27].veinsmobility 	totalTime 	549
scalar RSUExampleScenario.node[27].veinsmobility 	stopTime 	599
scalar RSUExampleScenario.node[27].veinsmobility 	minSpeed 	0
scalar RSUExampleScenario.node[27].veinsmobility 	maxSpeed 	16.669293724839
scalar RSUExampleScenario.node[27].veinsmobility 	totalDistance 	3353.7520986007
scalar RSUExampleScenario.node[27].veinsmobility 	totalCO2Emission 	1100.7227974715
scalar RSUExampleScenario.node[53].nic.phy80211p 	busyTime 	2.5697896749522e-06
scalar RSUExampleScenario.node[53].nic.mac1609_4 	ReceivedUnicastPackets 	0
scalar RSUExampleScenario.node[53].nic.mac1609_4 	ReceivedBroadcasts 	12
scalar RSUExampleScenario.node[53].nic.mac1609_4 	SentPackets 	1
scalar RSUExampleScenario.node[53].nic.mac1609_4 	SNIRLostPackets 	2
scalar RSUExampleScenario.node[53].nic.mac1609_4 	RXTXLostPackets 	0
scalar RSUExampleScenario.node[53].nic.mac1609_4 	TotalLostPackets 	2
scalar RSUExampleScenario.node[53].nic.mac1609_4 	DroppedPacketsInMac 	0
scalar RSUExampleScenario.node[53].nic.mac1609_4 	TooLittleTime 	0
scalar RSUExampleScenario.node[53].nic.mac1609_4 	TimesIntoBackoff 	1
scalar RSUExampleScenario.node[53].nic.mac1609_4 	SlotsBackoff 	5
scalar RSUExampleScenario.node[53].nic.mac1609_4 	NumInternalContention 	0
scalar RSUExampleScenario.node[53].nic.mac1609_4 	totalBusyTime 	0.001345
scalar RSUExampleScenario.node[53].veinsmobility 	startTime 	106
scalar RSUExampleScenario.node[53].veinsmobility 	totalTime 	522
scalar RSUExampleScenario.node[53].veinsmobility 	stopTime 	629
scalar RSUExampleScenario.node[53].veinsmobility 	minSpeed 	0
scalar RSUExampleScenario.node[53].veinsmobility 	maxSpeed 	27.775830731811
scalar RSUExampleScenario.node[53].veinsmobility 	totalDistance 	3401.3198364302
scalar RSUExampleScenario.node[53].veinsmobility 	totalCO2Emission 	1351.7947587928
scalar RSUExampleScenario.node[51].nic.phy80211p 	busyTime 	2.3414634146341e-06
scalar RSUExampleScenario.node[51].nic.mac1609_4 	ReceivedUnicastPackets 	0
scalar RSUExampleScenario.node[51].nic.mac1609_4 	ReceivedBroadcasts 	13
scalar RSUExampleScenario.node[51].nic.mac1609_4 	SentPackets 	1
scalar RSUExampleScenario.node[51].nic.mac1609_4 	SNIRLostPackets 	0
scalar RSUExampleScenario.node[51].nic.mac1609_4 	RXTXLostPackets 	0
scalar RSUExampleScenario.node[51].nic.mac1609_4 	TotalLostPackets 	0
scalar RSUExampleScenario.node[51].nic.mac1609_4 	DroppedPacketsInMac 	0
scalar RSUExampleScenario.node[51].nic.mac1609_4 	TooLittleTime 	0
scalar RSUExampleScenario.node[51].nic.mac1609_4 	TimesIntoBackoff 	1
scalar RSUExampleScenario.node[51].nic.mac1609_4 	SlotsBackoff 	2
scalar RSUExampleScenario.node[51].nic.mac1609_4 	NumInternalContention 	0
scalar RSUExampleScenario.node[51].nic.mac1609_4 	totalBusyTime 	0.001345
scalar RSUExampleScenario.node[51].veinsmobility 	startTime 	101
scalar RSUExampleScenario.node[51].veinsmobility 	totalTime 	532
scalar RSUExampleScenario.node[51].veinsmobility 	stopTime 	634
scalar RSUExampleScenario.node[51].veinsmobility 	minSpeed 	0
scalar RSUExampleScenario.node[51].veinsmobility 	maxSpeed 	27.775391474955
scalar RSUExampleScenario.node[51].veinsmobility 	totalDistance 	3394.3922404279
scalar RSUExampleScenario.node[51].veinsmobility 	totalCO2Emission 	1150.6302525906
scalar RSUExampleScenario.node[52].nic.phy80211p 	busyTime 	2.5168539325843e-06
scalar RSUExampleScenario.node[52].nic.mac1609_4 	ReceivedUnicastPackets 	0
scalar RSUExampleScenario.node[52].nic.mac1609_4 	ReceivedBroadcasts 	12
scalar RSUExampleScenario.node[52].nic.mac1609_4 	SentPackets 	1
scalar RSUExampleScenario.node[52].nic.mac1609_4 	SNIRLostPackets 	2
scalar RSUExampleScenario.node[52].nic.mac1609_4 	RXTXLostPackets 	0
scalar RSUExampleScenario.node[52].nic.mac1609_4 	TotalLostPackets 	2
scalar RSUExampleScenario.node[52].nic.mac1609_4 	DroppedPacketsInMac 	0
scalar RSUExampleScenario.node[52].nic.mac1609_4 	TooLittleTime 	0
scalar RSUExampleScenario.node[52].nic.mac1609_4 	TimesIntoBackoff 	1
scalar RSUExampleScenario.node[52].nic.mac1609_4 	SlotsBackoff 	2
scalar RSUExampleScenario.node[52].nic.mac1609_4 	NumInternalContention 	0
scalar RSUExampleScenario.node[52].nic.mac1609_4 	totalBusyTime 	0.001345
scalar RSUExampleScenario.node[52].veinsmobility 	startTime 	103
scalar RSUExampleScenario.node[52].veinsmobility 	totalTime 	533
scalar RSUExampleScenario.node[52].veinsmobility 	stopTime 	637
scalar RSUExampleScenario.node[52].veinsmobility 	minSpeed 	0
scalar RSUExampleScenario.node[52].veinsmobility 	maxSpeed 	27.761509807501
scalar RSUExampleScenario.node[52].veinsmobility 	totalDistance 	3402.8831239293
scalar RSUExampleScenario.node[52].veinsmobility 	totalCO2Emission 	1315.9532315544
scalar RSUExampleScenario.node[58].nic.phy80211p 	busyTime 	2.7586206896552e-06
scalar RSUExampleScenario.node[58].nic.mac1609_4 	ReceivedUnicastPackets 	0
scalar RSUExampleScenario.node[58].nic.mac1609_4 	ReceivedBroadcasts 	13
scalar RSUExampleScenario.node[58].nic.mac1609_4 	SentPackets 	1
scalar RSUExampleScenario.node[58].nic.mac1609_4 	SNIRLostPackets 	2
scalar RSUExampleScenario.node[58].nic.mac1609_4 	RXTXLostPackets 	0
scalar RSUExampleScenario.node[58].nic.mac1609_4 	TotalLostPackets 	2
scalar RSUExampleScenario.node[58].nic.mac1609_4 	DroppedPacketsInMac 	0
scalar RSUExampleScenario.node[58].nic.mac1609_4 	TooLittleTime 	0
scalar RSUExampleScenario.node[58].nic.mac1609_4 	TimesIntoBackoff 	1
scalar RSUExampleScenario.node[58].nic.mac1609_4 	SlotsBackoff 	5
scalar RSUExampleScenario.node[58].nic.mac1609_4 	NumInternalContention 	0
scalar RSUExampleScenario.node[58].nic.mac1609_4 	totalBusyTime 	0.001441
scalar RSUExampleScenario.node[58].veinsmobility 	startTime 	117
scalar RSUExampleScenario.node[58].veinsmobility 	totalTime 	521
scalar RSUExampleScenario.node[58].veinsmobility 	stopTime 	639
scalar RSUExampleScenario.node[58].veinsmobility 	minSpeed 	0
scalar RSUExampleScenario.node[58].veinsmobility 	maxSpeed 	27.769007189963
scalar RSUExampleScenario.node[58].veinsmobility 	totalDistance 	3398.5278781506
scalar RSUExampleScenario.node[58].veinsmobility 	totalCO2Emission 	1200.814066565
scalar RSUExampleScenario.node[56].nic.phy80211p 	busyTime 	2.7221172022684e-06
scalar RSUExampleScenario.node[56].nic.mac1609_4 	ReceivedUnicastPackets 	0
scalar RSUExampleScenario.node[56].nic.mac1609_4 	ReceivedBroadcasts 	13
scalar RSUExampleScenario.node[56].nic.mac1609_4 	SentPackets 	1
scalar RSUExampleScenario.node[56].nic.mac1609_4 	SNIRLostPackets 	2
scalar RSUExampleScenario.node[56].nic.mac1609_4 	RXTXLostPackets 	0
scalar RSUExampleScenario.node[56].nic.mac1609_4 	TotalLostPackets 	2
scalar RSUExampleScenario.node[56].nic.mac1609_4 	DroppedPacketsInMac 	0
scalar RSUExampleScenario.node[56].nic.mac1609_4 	TooLittleTime 	0
scalar RSUExampleScenario.node[56].nic.mac1609_4 	TimesIntoBackoff 	1
scalar RSUExampleScenario.node[56].nic.mac1609_4 	SlotsBackoff 	3
scalar RSUExampleScenario.node[56].nic.mac1609_4 	NumInternalContention 	0
scalar RSUExampleScenario.node[56].nic.mac1609_4 	totalBusyTime 	0.001441
scalar RSUExampleScenario.node[56].veinsmobility 	startTime 	112
scalar RSUExampleScenario.node[56].veinsmobility 	totalTime 	528
scalar RSUExampleScenario.node[56].veinsmobility 	stopTime 	641
scalar RSUExampleScenario.node[56].veinsmobility 	minSpeed 	0
scalar RSUExampleScenario.node[56].veinsmobility 	maxSpeed 	27.743031717222
scalar RSUExampleScenario.node[56].veinsmobility 	totalDistance 	3402.2598855384
scalar RSUExampleScenario.node[56].veinsmobility 	totalCO2Emission 	1237.7500610339
scalar RSUExampleScenario.node[60].nic.phy80211p 	busyTime 	2.7533460803059e-06
scalar RSUExampleScenario.node[60].nic.mac1609_4 	ReceivedUnicastPackets 	0
scalar RSUExampleScenario.node[60].nic.mac1609_4 	ReceivedBroadcasts 	15
scalar RSUExampleScenario.node[60].nic.mac1609_4 	SentPackets 	1
scalar RSUExampleScenario.node[60].nic.mac1609_4 	SNIRLostPackets 	0
scalar RSUExampleScenario.node[60].nic.mac1609_4 	RXTXLostPackets 	1
scalar RSUExampleScenario.node[60].nic.mac1609_4 	TotalLostPackets 	1
scalar RSUExampleScenario.node[60].nic.mac1609_4 	DroppedPacketsInMac 	0
scalar RSUExampleScenario.node[60].nic.mac1609_4 	TooLittleTime 	0
scalar RSUExampleScenario.node[60].nic.mac1609_4 	TimesIntoBackoff 	1
scalar RSUExampleScenario.node[60].nic.mac1609_4 	SlotsBackoff 	3
scalar RSUExampleScenario.node[60].nic.mac1609_4 	NumInternalContention 	0
scalar RSUExampleScenario.node[60].nic.mac1609_4 	totalBusyTime 	0.001537
scalar RSUExampleScenario.node[60].veinsmobility 	startTime 	121
scalar RSUExampleScenario.node[60].veinsmobility 	totalTime 	522
scalar RSUExampleScenario.node[60].veinsmobility 	stopTime 	644
scalar RSUExampleScenario.node[60].veinsmobility 	minSpeed 	0
scalar RSUExampleScenario.node[60].veinsmobility 	maxSpeed 	27.72480148646
scalar RSUExampleScenario.node[60].veinsmobility 	totalDistance 	3401.1023764902
scalar RSUExampleScenario.node[60].veinsmobility 	totalCO2Emission 	1180.4546872334
scalar RSUExampleScenario.node[30].nic.phy80211p 	busyTime 	4.3857868020305e-06
scalar RSUExampleScenario.node[30].nic.mac1609_4 	ReceivedUnicastPackets 	0
scalar RSUExampleScenario.node[30].nic.mac1609_4 	ReceivedBroadcasts 	23
scalar RSUExampleScenario.node[30].nic.mac1609_4 	SentPackets 	1
scalar RSUExampleScenario.node[30].nic.mac1609_4 	SNIRLostPackets 	4
scalar RSUExampleScenario.node[30].nic.mac1609_4 	RXTXLostPackets 	0
scalar RSUExampleScenario.node[30].nic.mac1609_4 	TotalLostPackets 	4
scalar RSUExampleScenario.node[30].nic.mac1609_4 	DroppedPacketsInMac 	0
scalar RSUExampleScenario.node[30].nic.mac1609_4 	TooLittleTime 	0
scalar RSUExampleScenario.node[30].nic.mac1609_4 	TimesIntoBackoff 	1
scalar RSUExampleScenario.node[30].nic.mac1609_4 	SlotsBackoff 	5
scalar RSUExampleScenario.node[30].nic.mac1609_4 	NumInternalContention 	0
scalar RSUExampleScenario.node[30].nic.mac1609_4 	totalBusyTime 	0.002497
scalar RSUExampleScenario.node[30].veinsmobility 	startTime 	55
scalar RSUExampleScenario.node[30].veinsmobility 	totalTime 	590
scalar RSUExampleScenario.node[30].veinsmobility 	stopTime 	646
scalar RSUExampleScenario.node[30].veinsmobility 	minSpeed 	0
scalar RSUExampleScenario.node[30].veinsmobility 	maxSpeed 	16.667890401222
scalar RSUExampleScenario.node[30].veinsmobility 	totalDistance 	3253.3894654354
scalar RSUExampleScenario.node[30].veinsmobility 	totalCO2Emission 	1142.8847323059
scalar RSUExampleScenario.node[54].nic.phy80211p 	busyTime 	2.6666666666667e-06
scalar RSUExampleScenario.node[54].nic.mac1609_4 	ReceivedUnicastPackets 	0
scalar RSUExampleScenario.node[54].nic.mac1609_4 	ReceivedBroadcasts 	13
scalar RSUExampleScenario.node[54].nic.mac1609_4 	SentPackets 	1
scalar RSUExampleScenario.node[54].nic.mac1609_4 	SNIRLostPackets 	2
scalar RSUExampleScenario.node[54].nic.mac1609_4 	RXTXLostPackets 	0
scalar RSUExampleScenario.node[54].nic.mac1609_4 	TotalLostPackets 	2
scalar RSUExampleScenario.node[54].nic.mac1609_4 	DroppedPacketsInMac 	0
scalar RSUExampleScenario.node[54].nic.mac1609_4 	TooLittleTime 	0
scalar RSUExampleScenario.node[54].nic.mac1609_4 	TimesIntoBackoff 	1
scalar RSUExampleScenario.node[54].nic.mac1609_4 	SlotsBackoff 	5
scalar RSUExampleScenario.node[54].nic.mac1609_4 	NumInternalContention 	0
scalar RSUExampleScenario.node[54].nic.mac1609_4 	totalBusyTime 	0.001441
scalar RSUExampleScenario.node[54].veinsmobility 	startTime 	108
scalar RSUExampleScenario.node[54].veinsmobility 	totalTime 	539
scalar RSUExampleScenario.node[54].veinsmobility 	stopTime 	648
scalar RSUExampleScenario.node[54].veinsmobility 	minSpeed 	0
scalar RSUExampleScenario.node[54].veinsmobility 	maxSpeed 	27.714075338328
scalar RSUExampleScenario.node[54].veinsmobility 	totalDistance 	3399.1150819718
scalar RSUExampleScenario.node[54].veinsmobility 	totalCO2Emission 	1267.8301166027
scalar RSUExampleScenario.node[55].nic.phy80211p 	busyTime 	2.6617375231054e-06
scalar RSUExampleScenario.node[55].nic.mac1609_4 	ReceivedUnicastPackets 	0
scalar RSUExampleScenario.node[55].nic.mac1609_4 	ReceivedBroadcasts 	13
scalar RSUExampleScenario.node[55].nic.mac1609_4 	SentPackets 	1
scalar RSUExampleScenario.node[55].nic.mac1609_4 	SNIRLostPackets 	2
scalar RSUExampleScenario.node[55].nic.mac1609_4 	RXTXLostPackets 	0
scalar RSUExampleScenario.node[55].nic.mac1609_4 	TotalLostPackets 	2
scalar RSUExampleScenario.node[55].nic.mac1609_4 	DroppedPacketsInMac 	0
scalar RSUExampleScenario.node[55].nic.mac1609_4 	TooLittleTime 	0
scalar RSUExampleScenario.node[55].nic.mac1609_4 	TimesIntoBackoff 	2
scalar RSUExampleScenario.node[55].nic.mac1609_4 	SlotsBackoff 	10
scalar RSUExampleScenario.node[55].nic.mac1609_4 	NumInternalContention 	0
scalar RSUExampleScenario.node[55].nic.mac1609_4 	totalBusyTime 	0.001441
scalar RSUExampleScenario.node[55].veinsmobility 	startTime 	110
scalar RSUExampleScenario.node[55].veinsmobility 	totalTime 	540
scalar RSUExampleScenario.node[55].veinsmobility 	stopTime 	651
scalar RSUExampleScenario.node[55].veinsmobility 	minSpeed 	0
scalar RSUExampleScenario.node[55].veinsmobility 	maxSpeed 	27.775877543213
scalar RSUExampleScenario.node[55].veinsmobility 	totalDistance 	3409.3882771206
scalar RSUExampleScenario.node[55].veinsmobility 	totalCO2Emission 	1289.210914447
scalar RSUExampleScenario.node[32].nic.phy80211p 	busyTime 	4.3563025210084e-06
scalar RSUExampleScenario.node[32].nic.mac1609_4 	ReceivedUnicastPackets 	0
scalar RSUExampleScenario.node[32].nic.mac1609_4 	ReceivedBroadcasts 	23
scalar RSUExampleScenario.node[32].nic.mac1609_4 	SentPackets 	1
scalar RSUExampleScenario.node[32].nic.mac1609_4 	SNIRLostPackets 	4
scalar RSUExampleScenario.node[32].nic.mac1609_4 	RXTXLostPackets 	0
scalar RSUExampleScenario.node[32].nic.mac1609_4 	TotalLostPackets 	4
scalar RSUExampleScenario.node[32].nic.mac1609_4 	DroppedPacketsInMac 	0
scalar RSUExampleScenario.node[32].nic.mac1609_4 	TooLittleTime 	0
scalar RSUExampleScenario.node[32].nic.mac1609_4 	TimesIntoBackoff 	2
scalar RSUExampleScenario.node[32].nic.mac1609_4 	SlotsBackoff 	7
scalar RSUExampleScenario.node[32].nic.mac1609_4 	NumInternalContention 	0
scalar RSUExampleScenario.node[32].nic.mac1609_4 	totalBusyTime 	0.002497093554
scalar RSUExampleScenario.node[32].veinsmobility 	startTime 	58
scalar RSUExampleScenario.node[32].veinsmobility 	totalTime 	594
scalar RSUExampleScenario.node[32].veinsmobility 	stopTime 	653
scalar RSUExampleScenario.node[32].veinsmobility 	minSpeed 	0
scalar RSUExampleScenario.node[32].veinsmobility 	maxSpeed 	16.666498508472
scalar RSUExampleScenario.node[32].veinsmobility 	totalDistance 	3255.4000295024
scalar RSUExampleScenario.node[32].veinsmobility 	totalCO2Emission 	1140.8210738489
scalar RSUExampleScenario.node[64].nic.phy80211p 	busyTime 	4.9184060721063e-06
scalar RSUExampleScenario.node[64].nic.mac1609_4 	ReceivedUnicastPackets 	0
scalar RSUExampleScenario.node[64].nic.mac1609_4 	ReceivedBroadcasts 	13
scalar RSUExampleScenario.node[64].nic.mac1609_4 	SentPackets 	1
scalar RSUExampleScenario.node[64].nic.mac1609_4 	SNIRLostPackets 	14
scalar RSUExampleScenario.node[64].nic.mac1609_4 	RXTXLostPackets 	0
scalar RSUExampleScenario.node[64].nic.mac1609_4 	TotalLostPackets 	14
scalar RSUExampleScenario.node[64].nic.mac1609_4 	DroppedPacketsInMac 	0
scalar RSUExampleScenario.node[64].nic.mac1609_4 	TooLittleTime 	0
scalar RSUExampleScenario.node[64].nic.mac1609_4 	TimesIntoBackoff 	1
scalar RSUExampleScenario.node[64].nic.mac1609_4 	SlotsBackoff 	3
scalar RSUExampleScenario.node[64].nic.mac1609_4 	NumInternalContention 	0
scalar RSUExampleScenario.node[64].nic.mac1609_4 	totalBusyTime 	0.002089001067
scalar RSUExampleScenario.node[64].veinsmobility 	startTime 	131
scalar RSUExampleScenario.node[64].veinsmobility 	totalTime 	526
scalar RSUExampleScenario.node[64].veinsmobility 	stopTime 	658
scalar RSUExampleScenario.node[64].veinsmobility 	minSpeed 	0
scalar RSUExampleScenario.node[64].veinsmobility 	maxSpeed 	27.652706918621
scalar RSUExampleScenario.node[64].veinsmobility 	totalDistance 	3392.8605173841
scalar RSUExampleScenario.node[64].veinsmobility 	totalCO2Emission 	1193.7368942706
scalar RSUExampleScenario.node[57].nic.phy80211p 	busyTime 	2.6325411334552e-06
scalar RSUExampleScenario.node[57].nic.mac1609_4 	ReceivedUnicastPackets 	0
scalar RSUExampleScenario.node[57].nic.mac1609_4 	ReceivedBroadcasts 	13
scalar RSUExampleScenario.node[57].nic.mac1609_4 	SentPackets 	1
scalar RSUExampleScenario.node[57].nic.mac1609_4 	SNIRLostPackets 	2
scalar RSUExampleScenario.node[57].nic.mac1609_4 	RXTXLostPackets 	0
scalar RSUExampleScenario.node[57].nic.mac1609_4 	TotalLostPackets 	2
scalar RSUExampleScenario.node[57].nic.mac1609_4 	DroppedPacketsInMac 	0
scalar RSUExampleScenario.node[57].nic.mac1609_4 	TooLittleTime 	0
scalar RSUExampleScenario.node[57].nic.mac1609_4 	TimesIntoBackoff 	1
scalar RSUExampleScenario.node[57].nic.mac1609_4 	SlotsBackoff 	1
scalar RSUExampleScenario.node[57].nic.mac1609_4 	NumInternalContention 	0
scalar RSUExampleScenario.node[57].nic.mac1609_4 	totalBusyTime 	0.001441
scalar RSUExampleScenario.node[57].veinsmobility 	startTime 	114
scalar RSUExampleScenario.node[57].veinsmobility 	totalTime 	546
scalar RSUExampleScenario.node[57].veinsmobility 	stopTime 	661
scalar RSUExampleScenario.node[57].veinsmobility 	minSpeed 	0
scalar RSUExampleScenario.node[57].veinsmobility 	maxSpeed 	27.7382546206
scalar RSUExampleScenario.node[57].veinsmobility 	totalDistance 	3403.8792581742
scalar RSUExampleScenario.node[57].veinsmobility 	totalCO2Emission 	1242.0765873831
scalar RSUExampleScenario.node[59].nic.phy80211p 	busyTime 	2.8235294117647e-06
scalar RSUExampleScenario.node[59].nic.mac1609_4 	ReceivedUnicastPackets 	0
scalar RSUExampleScenario.node[59].nic.mac1609_4 	ReceivedBroadcasts 	14
scalar RSUExampleScenario.node[59].nic.mac1609_4 	SentPackets 	1
scalar RSUExampleScenario.node[59].nic.mac1609_4 	SNIRLostPackets 	2
scalar RSUExampleScenario.node[59].nic.mac1609_4 	RXTXLostPackets 	0
scalar RSUExampleScenario.node[59].nic.mac1609_4 	TotalLostPackets 	2
scalar RSUExampleScenario.node[59].nic.mac1609_4 	DroppedPacketsInMac 	0
scalar RSUExampleScenario.node[59].nic.mac1609_4 	TooLittleTime 	0
scalar RSUExampleScenario.node[59].nic.mac1609_4 	TimesIntoBackoff 	1
scalar RSUExampleScenario.node[59].nic.mac1609_4 	SlotsBackoff 	2
scalar RSUExampleScenario.node[59].nic.mac1609_4 	NumInternalContention 	0
scalar RSUExampleScenario.node[59].nic.mac1609_4 	totalBusyTime 	0.001537
scalar RSUExampleScenario.node[59].veinsmobility 	startTime 	119
scalar RSUExampleScenario.node[59].veinsmobility 	totalTime 	543
scalar RSUExampleScenario.node[59].veinsmobility 	stopTime 	663
scalar RSUExampleScenario.node[59].veinsmobility 	minSpeed 	0
scalar RSUExampleScenario.node[59].veinsmobility 	maxSpeed 	27.7714224701
scalar RSUExampleScenario.node[59].veinsmobility 	totalDistance 	3396.6808608193
scalar RSUExampleScenario.node[59].veinsmobility 	totalCO2Emission 	1185.0563376887
scalar RSUExampleScenario.node[28].nic.phy80211p 	busyTime 	4.2146341463415e-06
scalar RSUExampleScenario.node[28].nic.mac1609_4 	ReceivedUnicastPackets 	0
scalar RSUExampleScenario.node[28].nic.mac1609_4 	ReceivedBroadcasts 	23
scalar RSUExampleScenario.node[28].nic.mac1609_4 	SentPackets 	1
scalar RSUExampleScenario.node[28].nic.mac1609_4 	SNIRLostPackets 	4
scalar RSUExampleScenario.node[28].nic.mac1609_4 	RXTXLostPackets 	0
scalar RSUExampleScenario.node[28].nic.mac1609_4 	TotalLostPackets 	4
scalar RSUExampleScenario.node[28].nic.mac1609_4 	DroppedPacketsInMac 	0
scalar RSUExampleScenario.node[28].nic.mac1609_4 	TooLittleTime 	0
scalar RSUExampleScenario.node[28].nic.mac1609_4 	TimesIntoBackoff 	2
scalar RSUExampleScenario.node[28].nic.mac1609_4 	SlotsBackoff 	6
scalar RSUExampleScenario.node[28].nic.mac1609_4 	NumInternalContention 	0
scalar RSUExampleScenario.node[28].nic.mac1609_4 	totalBusyTime 	0.002497
scalar RSUExampleScenario.node[28].veinsmobility 	startTime 	51
scalar RSUExampleScenario.node[28].veinsmobility 	totalTime 	614
scalar RSUExampleScenario.node[28].veinsmobility 	stopTime 	666
scalar RSUExampleScenario.node[28].veinsmobility 	minSpeed 	0
scalar RSUExampleScenario.node[28].veinsmobility 	maxSpeed 	16.665104344543
scalar RSUExampleScenario.node[28].veinsmobility 	totalDistance 	3356.7837157494
scalar RSUExampleScenario.node[28].veinsmobility 	totalCO2Emission 	1189.6433760383
scalar RSUExampleScenario.node[61].nic.phy80211p 	busyTime 	2.994495412844e-06
scalar RSUExampleScenario.node[61].nic.mac1609_4 	ReceivedUnicastPackets 	0
scalar RSUExampleScenario.node[61].nic.mac1609_4 	ReceivedBroadcasts 	13
scalar RSUExampleScenario.node[61].nic.mac1609_4 	SentPackets 	1
scalar RSUExampleScenario.node[61].nic.mac1609_4 	SNIRLostPackets 	4
scalar RSUExampleScenario.node[61].nic.mac1609_4 	RXTXLostPackets 	0
scalar RSUExampleScenario.node[61].nic.mac1609_4 	TotalLostPackets 	4
scalar RSUExampleScenario.node[61].nic.mac1609_4 	DroppedPacketsInMac 	0
scalar RSUExampleScenario.node[61].nic.mac1609_4 	TooLittleTime 	0
scalar RSUExampleScenario.node[61].nic.mac1609_4 	TimesIntoBackoff 	2
scalar RSUExampleScenario.node[61].nic.mac1609_4 	SlotsBackoff 	5
scalar RSUExampleScenario.node[61].nic.mac1609_4 	NumInternalContention 	0
scalar RSUExampleScenario.node[61].nic.mac1609_4 	totalBusyTime 	0.001537
scalar RSUExampleScenario.node[61].veinsmobility 	startTime 	124
scalar RSUExampleScenario.node[61].veinsmobility 	totalTime 	544
scalar RSUExampleScenario.node[61].veinsmobility 	stopTime 	669
scalar RSUExampleScenario.node[61].veinsmobility 	minSpeed 	0
scalar RSUExampleScenario.node[61].veinsmobility 	maxSpeed 	27.762912179371
scalar RSUExampleScenario.node[61].veinsmobility 	totalDistance 	3401.0634735179
scalar RSUExampleScenario.node[61].veinsmobility 	totalCO2Emission 	1220.2165084104
scalar RSUExampleScenario.node[63].nic.phy80211p 	busyTime 	3.8823529411765e-06
scalar RSUExampleScenario.node[63].nic.mac1609_4 	ReceivedUnicastPackets 	0
scalar RSUExampleScenario.node[63].nic.mac1609_4 	ReceivedBroadcasts 	10
scalar RSUExampleScenario.node[63].nic.mac1609_4 	SentPackets 	1
scalar RSUExampleScenario.node[63].nic.mac1609_4 	SNIRLostPackets 	12
scalar RSUExampleScenario.node[63].nic.mac1609_4 	RXTXLostPackets 	0
scalar RSUExampleScenario.node[63].nic.mac1609_4 	TotalLostPackets 	12
scalar RSUExampleScenario.node[63].nic.mac1609_4 	DroppedPacketsInMac 	0
scalar RSUExampleScenario.node[63].nic.mac1609_4 	TooLittleTime 	0
scalar RSUExampleScenario.node[63].nic.mac1609_4 	TimesIntoBackoff 	1
scalar RSUExampleScenario.node[63].nic.mac1609_4 	SlotsBackoff 	0
scalar RSUExampleScenario.node[63].nic.mac1609_4 	NumInternalContention 	0
scalar RSUExampleScenario.node[63].nic.mac1609_4 	totalBusyTime 	0.001633
scalar RSUExampleScenario.node[63].veinsmobility 	startTime 	128
scalar RSUExampleScenario.node[63].veinsmobility 	totalTime 	543
scalar RSUExampleScenario.node[63].veinsmobility 	stopTime 	672
scalar RSUExampleScenario.node[63].veinsmobility 	minSpeed 	0
scalar RSUExampleScenario.node[63].veinsmobility 	maxSpeed 	27.760310148634
scalar RSUExampleScenario.node[63].veinsmobility 	totalDistance 	3399.0923417153
scalar RSUExampleScenario.node[63].veinsmobility 	totalCO2Emission 	1233.0162698205
scalar RSUExampleScenario.node[65].nic.phy80211p 	busyTime 	6.5656192236599e-06
scalar RSUExampleScenario.node[65].nic.mac1609_4 	ReceivedUnicastPackets 	0
scalar RSUExampleScenario.node[65].nic.mac1609_4 	ReceivedBroadcasts 	12
scalar RSUExampleScenario.node[65].nic.mac1609_4 	SentPackets 	1
scalar RSUExampleScenario.node[65].nic.mac1609_4 	SNIRLostPackets 	24
scalar RSUExampleScenario.node[65].nic.mac1609_4 	RXTXLostPackets 	2
scalar RSUExampleScenario.node[65].nic.mac1609_4 	TotalLostPackets 	26
scalar RSUExampleScenario.node[65].nic.mac1609_4 	DroppedPacketsInMac 	0
scalar RSUExampleScenario.node[65].nic.mac1609_4 	TooLittleTime 	0
scalar RSUExampleScenario.node[65].nic.mac1609_4 	TimesIntoBackoff 	1
scalar RSUExampleScenario.node[65].nic.mac1609_4 	SlotsBackoff 	0
scalar RSUExampleScenario.node[65].nic.mac1609_4 	NumInternalContention 	0
scalar RSUExampleScenario.node[65].nic.mac1609_4 	totalBusyTime 	0.002453380735
scalar RSUExampleScenario.node[65].veinsmobility 	startTime 	133
scalar RSUExampleScenario.node[65].veinsmobility 	totalTime 	540
scalar RSUExampleScenario.node[65].veinsmobility 	stopTime 	674
scalar RSUExampleScenario.node[65].veinsmobility 	minSpeed 	0
scalar RSUExampleScenario.node[65].veinsmobility 	maxSpeed 	27.720702737737
scalar RSUExampleScenario.node[65].veinsmobility 	totalDistance 	3394.1721399852
scalar RSUExampleScenario.node[65].veinsmobility 	totalCO2Emission 	1234.9117295553
scalar RSUExampleScenario.node[62].nic.phy80211p 	busyTime 	3.6654545454545e-06
scalar RSUExampleScenario.node[62].nic.mac1609_4 	ReceivedUnicastPackets 	0
scalar RSUExampleScenario.node[62].nic.mac1609_4 	ReceivedBroadcasts 	11
scalar RSUExampleScenario.node[62].nic.mac1609_4 	SentPackets 	1
scalar RSUExampleScenario.node[62].nic.mac1609_4 	SNIRLostPackets 	9
scalar RSUExampleScenario.node[62].nic.mac1609_4 	RXTXLostPackets 	2
scalar RSUExampleScenario.node[62].nic.mac1609_4 	TotalLostPackets 	11
scalar RSUExampleScenario.node[62].nic.mac1609_4 	DroppedPacketsInMac 	0
scalar RSUExampleScenario.node[62].nic.mac1609_4 	TooLittleTime 	0
scalar RSUExampleScenario.node[62].nic.mac1609_4 	TimesIntoBackoff 	1
scalar RSUExampleScenario.node[62].nic.mac1609_4 	SlotsBackoff 	7
scalar RSUExampleScenario.node[62].nic.mac1609_4 	NumInternalContention 	0
scalar RSUExampleScenario.node[62].nic.mac1609_4 	totalBusyTime 	0.001634513268
scalar RSUExampleScenario.node[62].veinsmobility 	startTime 	126
scalar RSUExampleScenario.node[62].veinsmobility 	totalTime 	549
scalar RSUExampleScenario.node[62].veinsmobility 	stopTime 	676
scalar RSUExampleScenario.node[62].veinsmobility 	minSpeed 	0
scalar RSUExampleScenario.node[62].veinsmobility 	maxSpeed 	27.743323101653
scalar RSUExampleScenario.node[62].veinsmobility 	totalDistance 	3399.0822005787
scalar RSUExampleScenario.node[62].veinsmobility 	totalCO2Emission 	1214.6110384334
scalar RSUExampleScenario.node[31].nic.phy80211p 	busyTime 	4.0064205457464e-06
scalar RSUExampleScenario.node[31].nic.mac1609_4 	ReceivedUnicastPackets 	0
scalar RSUExampleScenario.node[31].nic.mac1609_4 	ReceivedBroadcasts 	24
scalar RSUExampleScenario.node[31].nic.mac1609_4 	SentPackets 	1
scalar RSUExampleScenario.node[31].nic.mac1609_4 	SNIRLostPackets 	2
scalar RSUExampleScenario.node[31].nic.mac1609_4 	RXTXLostPackets 	1
scalar RSUExampleScenario.node[31].nic.mac1609_4 	TotalLostPackets 	3
scalar RSUExampleScenario.node[31].nic.mac1609_4 	DroppedPacketsInMac 	0
scalar RSUExampleScenario.node[31].nic.mac1609_4 	TooLittleTime 	0
scalar RSUExampleScenario.node[31].nic.mac1609_4 	TimesIntoBackoff 	1
scalar RSUExampleScenario.node[31].nic.mac1609_4 	SlotsBackoff 	5
scalar RSUExampleScenario.node[31].nic.mac1609_4 	NumInternalContention 	0
scalar RSUExampleScenario.node[31].nic.mac1609_4 	totalBusyTime 	0.002497155691
scalar RSUExampleScenario.node[31].veinsmobility 	startTime 	56
scalar RSUExampleScenario.node[31].veinsmobility 	totalTime 	622
scalar RSUExampleScenario.node[31].veinsmobility 	stopTime 	679
scalar RSUExampleScenario.node[31].veinsmobility 	minSpeed 	0
scalar RSUExampleScenario.node[31].veinsmobility 	maxSpeed 	16.669087028047
scalar RSUExampleScenario.node[31].veinsmobility 	totalDistance 	3259.3259930178
scalar RSUExampleScenario.node[31].veinsmobility 	totalCO2Emission 	1220.6756991232
scalar RSUExampleScenario.node[34].nic.phy80211p 	busyTime 	4.032310177706e-06
scalar RSUExampleScenario.node[34].nic.mac1609_4 	ReceivedUnicastPackets 	0
scalar RSUExampleScenario.node[34].nic.mac1609_4 	ReceivedBroadcasts 	24
scalar RSUExampleScenario.node[34].nic.mac1609_4 	SentPackets 	1
scalar RSUExampleScenario.node[34].nic.mac1609_4 	SNIRLostPackets 	2
scalar RSUExampleScenario.node[34].nic.mac1609_4 	RXTXLostPackets 	1
scalar RSUExampleScenario.node[34].nic.mac1609_4 	TotalLostPackets 	3
scalar RSUExampleScenario.node[34].nic.mac1609_4 	DroppedPacketsInMac 	0
scalar RSUExampleScenario.node[34].nic.mac1609_4 	TooLittleTime 	0
scalar RSUExampleScenario.node[34].nic.mac1609_4 	TimesIntoBackoff 	2
scalar RSUExampleScenario.node[34].nic.mac1609_4 	SlotsBackoff 	13
scalar RSUExampleScenario.node[34].nic.mac1609_4 	NumInternalContention 	0
scalar RSUExampleScenario.node[34].nic.mac1609_4 	totalBusyTime 	0.002497028897
scalar RSUExampleScenario.node[34].veinsmobility 	startTime 	62
scalar RSUExampleScenario.node[34].veinsmobility 	totalTime 	618
scalar RSUExampleScenario.node[34].veinsmobility 	stopTime 	681
scalar RSUExampleScenario.node[34].veinsmobility 	minSpeed 	0
scalar RSUExampleScenario.node[34].veinsmobility 	maxSpeed 	16.667481451263
scalar RSUExampleScenario.node[34].veinsmobility 	totalDistance 	3256.1130684883
scalar RSUExampleScenario.node[34].veinsmobility 	totalCO2Emission 	1192.7592285925
scalar RSUExampleScenario.node[66].nic.phy80211p 	busyTime 	6.6569343065693e-06
scalar RSUExampleScenario.node[66].nic.mac1609_4 	ReceivedUnicastPackets 	0
scalar RSUExampleScenario.node[66].nic.mac1609_4 	ReceivedBroadcasts 	11
scalar RSUExampleScenario.node[66].nic.mac1609_4 	SentPackets 	1
scalar RSUExampleScenario.node[66].nic.mac1609_4 	SNIRLostPackets 	27
scalar RSUExampleScenario.node[66].nic.mac1609_4 	RXTXLostPackets 	0
scalar RSUExampleScenario.node[66].nic.mac1609_4 	TotalLostPackets 	27
scalar RSUExampleScenario.node[66].nic.mac1609_4 	DroppedPacketsInMac 	0
scalar RSUExampleScenario.node[66].nic.mac1609_4 	TooLittleTime 	0
scalar RSUExampleScenario.node[66].nic.mac1609_4 	TimesIntoBackoff 	1
scalar RSUExampleScenario.node[66].nic.mac1609_4 	SlotsBackoff 	7
scalar RSUExampleScenario.node[66].nic.mac1609_4 	NumInternalContention 	0
scalar RSUExampleScenario.node[66].nic.mac1609_4 	totalBusyTime 	0.002401
scalar RSUExampleScenario.node[66].veinsmobility 	startTime 	135
scalar RSUExampleScenario.node[66].veinsmobility 	totalTime 	547
scalar RSUExampleScenario.node[66].veinsmobility 	stopTime 	683
scalar RSUExampleScenario.node[66].veinsmobility 	minSpeed 	0
scalar RSUExampleScenario.node[66].veinsmobility 	maxSpeed 	27.683932645489
scalar RSUExampleScenario.node[66].veinsmobility 	totalDistance 	3400.6264932182
scalar RSUExampleScenario.node[66].veinsmobility 	totalCO2Emission 	1294.4359854225
scalar RSUExampleScenario.node[96].nic.phy80211p 	busyTime 	2.0152671755725e-06
scalar RSUExampleScenario.node[96].nic.mac1609_4 	ReceivedUnicastPackets 	0
scalar RSUExampleScenario.node[96].nic.mac1609_4 	ReceivedBroadcasts 	7
scalar RSUExampleScenario.node[96].nic.mac1609_4 	SentPackets 	1
scalar RSUExampleScenario.node[96].nic.mac1609_4 	SNIRLostPackets 	4
scalar RSUExampleScenario.node[96].nic.mac1609_4 	RXTXLostPackets 	0
scalar RSUExampleScenario.node[96].nic.mac1609_4 	TotalLostPackets 	4
scalar RSUExampleScenario.node[96].nic.mac1609_4 	DroppedPacketsInMac 	0
scalar RSUExampleScenario.node[96].nic.mac1609_4 	TooLittleTime 	0
scalar RSUExampleScenario.node[96].nic.mac1609_4 	TimesIntoBackoff 	1
scalar RSUExampleScenario.node[96].nic.mac1609_4 	SlotsBackoff 	2
scalar RSUExampleScenario.node[96].nic.mac1609_4 	NumInternalContention 	0
scalar RSUExampleScenario.node[96].nic.mac1609_4 	totalBusyTime 	0.000961
scalar RSUExampleScenario.node[96].veinsmobility 	startTime 	214
scalar RSUExampleScenario.node[96].veinsmobility 	totalTime 	523
scalar RSUExampleScenario.node[96].veinsmobility 	stopTime 	738
scalar RSUExampleScenario.node[96].veinsmobility 	minSpeed 	0
scalar RSUExampleScenario.node[96].veinsmobility 	maxSpeed 	27.767417452172
scalar RSUExampleScenario.node[96].veinsmobility 	totalDistance 	3393.3403769441
scalar RSUExampleScenario.node[96].veinsmobility 	totalCO2Emission 	1083.0384313646
scalar RSUExampleScenario.node[35].nic.phy80211p 	busyTime 	3.6923076923077e-06
scalar RSUExampleScenario.node[35].nic.mac1609_4 	ReceivedUnicastPackets 	0
scalar RSUExampleScenario.node[35].nic.mac1609_4 	ReceivedBroadcasts 	22
scalar RSUExampleScenario.node[35].nic.mac1609_4 	SentPackets 	1
scalar RSUExampleScenario.node[35].nic.mac1609_4 	SNIRLostPackets 	4
scalar RSUExampleScenario.node[35].nic.mac1609_4 	RXTXLostPackets 	0
scalar RSUExampleScenario.node[35].nic.mac1609_4 	TotalLostPackets 	4
scalar RSUExampleScenario.node[35].nic.mac1609_4 	DroppedPacketsInMac 	0
scalar RSUExampleScenario.node[35].nic.mac1609_4 	TooLittleTime 	0
scalar RSUExampleScenario.node[35].nic.mac1609_4 	TimesIntoBackoff 	2
scalar RSUExampleScenario.node[35].nic.mac1609_4 	SlotsBackoff 	9
scalar RSUExampleScenario.node[35].nic.mac1609_4 	NumInternalContention 	0
scalar RSUExampleScenario.node[35].nic.mac1609_4 	totalBusyTime 	0.002401
scalar RSUExampleScenario.node[35].veinsmobility 	startTime 	64
scalar RSUExampleScenario.node[35].veinsmobility 	totalTime 	675
scalar RSUExampleScenario.node[35].veinsmobility 	stopTime 	740
scalar RSUExampleScenario.node[35].veinsmobility 	minSpeed 	0
scalar RSUExampleScenario.node[35].veinsmobility 	maxSpeed 	16.667674390757
scalar RSUExampleScenario.node[35].veinsmobility 	totalDistance 	3248.9967948893
scalar RSUExampleScenario.node[35].veinsmobility 	totalCO2Emission 	1258.5202130026
scalar RSUExampleScenario.node[36].nic.phy80211p 	busyTime 	3.6868537666174e-06
scalar RSUExampleScenario.node[36].nic.mac1609_4 	ReceivedUnicastPackets 	0
scalar RSUExampleScenario.node[36].nic.mac1609_4 	ReceivedBroadcasts 	22
scalar RSUExampleScenario.node[36].nic.mac1609_4 	SentPackets 	1
scalar RSUExampleScenario.node[36].nic.mac1609_4 	SNIRLostPackets 	4
scalar RSUExampleScenario.node[36].nic.mac1609_4 	RXTXLostPackets 	0
scalar RSUExampleScenario.node[36].nic.mac1609_4 	TotalLostPackets 	4
scalar RSUExampleScenario.node[36].nic.mac1609_4 	DroppedPacketsInMac 	0
scalar RSUExampleScenario.node[36].nic.mac1609_4 	TooLittleTime 	0
scalar RSUExampleScenario.node[36].nic.mac1609_4 	TimesIntoBackoff 	2
scalar RSUExampleScenario.node[36].nic.mac1609_4 	SlotsBackoff 	11
scalar RSUExampleScenario.node[36].nic.mac1609_4 	NumInternalContention 	0
scalar RSUExampleScenario.node[36].nic.mac1609_4 	totalBusyTime 	0.002401
scalar RSUExampleScenario.node[36].veinsmobility 	startTime 	66
scalar RSUExampleScenario.node[36].veinsmobility 	totalTime 	676
scalar RSUExampleScenario.node[36].veinsmobility 	stopTime 	743
scalar RSUExampleScenario.node[36].veinsmobility 	minSpeed 	0
scalar RSUExampleScenario.node[36].veinsmobility 	maxSpeed 	16.66903800766
scalar RSUExampleScenario.node[36].veinsmobility 	totalDistance 	3255.7882308493
scalar RSUExampleScenario.node[36].veinsmobility 	totalCO2Emission 	1258.6043206662
scalar RSUExampleScenario.node[37].nic.phy80211p 	busyTime 	3.6868537666174e-06
scalar RSUExampleScenario.node[37].nic.mac1609_4 	ReceivedUnicastPackets 	0
scalar RSUExampleScenario.node[37].nic.mac1609_4 	ReceivedBroadcasts 	22
scalar RSUExampleScenario.node[37].nic.mac1609_4 	SentPackets 	1
scalar RSUExampleScenario.node[37].nic.mac1609_4 	SNIRLostPackets 	4
scalar RSUExampleScenario.node[37].nic.mac1609_4 	RXTXLostPackets 	0
scalar RSUExampleScenario.node[37].nic.mac1609_4 	TotalLostPackets 	4
scalar RSUExampleScenario.node[37].nic.mac1609_4 	DroppedPacketsInMac 	0
scalar RSUExampleScenario.node[37].nic.mac1609_4 	TooLittleTime 	0
scalar RSUExampleScenario.node[37].nic.mac1609_4 	TimesIntoBackoff 	2
scalar RSUExampleScenario.node[37].nic.mac1609_4 	SlotsBackoff 	9
scalar RSUExampleScenario.node[37].nic.mac1609_4 	NumInternalContention 	0
scalar RSUExampleScenario.node[37].nic.mac1609_4 	totalBusyTime 	0.002401
scalar RSUExampleScenario.node[37].veinsmobility 	startTime 	68
scalar RSUExampleScenario.node[37].veinsmobility 	totalTime 	676
scalar RSUExampleScenario.node[37].veinsmobility 	stopTime 	745
scalar RSUExampleScenario.node[37].veinsmobility 	minSpeed 	0
scalar RSUExampleScenario.node[37].veinsmobility 	maxSpeed 	16.665396585083
scalar RSUExampleScenario.node[37].veinsmobility 	totalDistance 	3251.7252810423
scalar RSUExampleScenario.node[37].veinsmobility 	totalCO2Emission 	1230.7821760344
scalar RSUExampleScenario.node[38].nic.phy80211p 	busyTime 	3.5450516986706e-06
scalar RSUExampleScenario.node[38].nic.mac1609_4 	ReceivedUnicastPackets 	0
scalar RSUExampleScenario.node[38].nic.mac1609_4 	ReceivedBroadcasts 	23
scalar RSUExampleScenario.node[38].nic.mac1609_4 	SentPackets 	1
scalar RSUExampleScenario.node[38].nic.mac1609_4 	SNIRLostPackets 	2
scalar RSUExampleScenario.node[38].nic.mac1609_4 	RXTXLostPackets 	1
scalar RSUExampleScenario.node[38].nic.mac1609_4 	TotalLostPackets 	3
scalar RSUExampleScenario.node[38].nic.mac1609_4 	DroppedPacketsInMac 	0
scalar RSUExampleScenario.node[38].nic.mac1609_4 	TooLittleTime 	0
scalar RSUExampleScenario.node[38].nic.mac1609_4 	TimesIntoBackoff 	1
scalar RSUExampleScenario.node[38].nic.mac1609_4 	SlotsBackoff 	7
scalar RSUExampleScenario.node[38].nic.mac1609_4 	NumInternalContention 	0
scalar RSUExampleScenario.node[38].nic.mac1609_4 	totalBusyTime 	0.002401
scalar RSUExampleScenario.node[38].veinsmobility 	startTime 	70
scalar RSUExampleScenario.node[38].veinsmobility 	totalTime 	676
scalar RSUExampleScenario.node[38].veinsmobility 	stopTime 	747
scalar RSUExampleScenario.node[38].veinsmobility 	minSpeed 	0
scalar RSUExampleScenario.node[38].veinsmobility 	maxSpeed 	16.668535453314
scalar RSUExampleScenario.node[38].veinsmobility 	totalDistance 	3249.289944595
scalar RSUExampleScenario.node[38].veinsmobility 	totalCO2Emission 	1182.7038560639
scalar RSUExampleScenario.node[95].nic.phy80211p 	busyTime 	1.9411764705882e-06
scalar RSUExampleScenario.node[95].nic.mac1609_4 	ReceivedUnicastPackets 	0
scalar RSUExampleScenario.node[95].nic.mac1609_4 	ReceivedBroadcasts 	8
scalar RSUExampleScenario.node[95].nic.mac1609_4 	SentPackets 	1
scalar RSUExampleScenario.node[95].nic.mac1609_4 	SNIRLostPackets 	3
scalar RSUExampleScenario.node[95].nic.mac1609_4 	RXTXLostPackets 	0
scalar RSUExampleScenario.node[95].nic.mac1609_4 	TotalLostPackets 	3
scalar RSUExampleScenario.node[95].nic.mac1609_4 	DroppedPacketsInMac 	0
scalar RSUExampleScenario.node[95].nic.mac1609_4 	TooLittleTime 	0
scalar RSUExampleScenario.node[95].nic.mac1609_4 	TimesIntoBackoff 	1
scalar RSUExampleScenario.node[95].nic.mac1609_4 	SlotsBackoff 	6
scalar RSUExampleScenario.node[95].nic.mac1609_4 	NumInternalContention 	0
scalar RSUExampleScenario.node[95].nic.mac1609_4 	totalBusyTime 	0.000961
scalar RSUExampleScenario.node[95].veinsmobility 	startTime 	210
scalar RSUExampleScenario.node[95].veinsmobility 	totalTime 	543
scalar RSUExampleScenario.node[95].veinsmobility 	stopTime 	754
scalar RSUExampleScenario.node[95].veinsmobility 	minSpeed 	0
scalar RSUExampleScenario.node[95].veinsmobility 	maxSpeed 	27.776236905316
scalar RSUExampleScenario.node[95].veinsmobility 	totalDistance 	3395.0015104946
scalar RSUExampleScenario.node[95].veinsmobility 	totalCO2Emission 	1057.2492108119
scalar RSUExampleScenario.node[40].nic.phy80211p 	busyTime 	3.6598240469208e-06
scalar RSUExampleScenario.node[40].nic.mac1609_4 	ReceivedUnicastPackets 	0
scalar RSUExampleScenario.node[40].nic.mac1609_4 	ReceivedBroadcasts 	22
scalar RSUExampleScenario.node[40].nic.mac1609_4 	SentPackets 	1
scalar RSUExampleScenario.node[40].nic.mac1609_4 	SNIRLostPackets 	4
scalar RSUExampleScenario.node[40].nic.mac1609_4 	RXTXLostPackets 	0
scalar RSUExampleScenario.node[40].nic.mac1609_4 	TotalLostPackets 	4
scalar RSUExampleScenario.node[40].nic.mac1609_4 	DroppedPacketsInMac 	0
scalar RSUExampleScenario.node[40].nic.mac1609_4 	TooLittleTime 	0
scalar RSUExampleScenario.node[40].nic.mac1609_4 	TimesIntoBackoff 	2
scalar RSUExampleScenario.node[40].nic.mac1609_4 	SlotsBackoff 	6
scalar RSUExampleScenario.node[40].nic.mac1609_4 	NumInternalContention 	0
scalar RSUExampleScenario.node[40].nic.mac1609_4 	totalBusyTime 	0.002401
scalar RSUExampleScenario.node[40].veinsmobility 	startTime 	74
scalar RSUExampleScenario.node[40].veinsmobility 	totalTime 	681
scalar RSUExampleScenario.node[40].veinsmobility 	stopTime 	756
scalar RSUExampleScenario.node[40].veinsmobility 	minSpeed 	0
scalar RSUExampleScenario.node[40].veinsmobility 	maxSpeed 	16.66020653897
scalar RSUExampleScenario.node[40].veinsmobility 	totalDistance 	3249.4434516033
scalar RSUExampleScenario.node[40].veinsmobility 	totalCO2Emission 	1194.2970020534
scalar RSUExampleScenario.node[42].nic.phy80211p 	busyTime 	3.9471365638767e-06
scalar RSUExampleScenario.node[42].nic.mac1609_4 	ReceivedUnicastPackets 	0
scalar RSUExampleScenario.node[42].nic.mac1609_4 	ReceivedBroadcasts 	24
scalar RSUExampleScenario.node[42].nic.mac1609_4 	SentPackets 	1
scalar RSUExampleScenario.node[42].nic.mac1609_4 	SNIRLostPackets 	4
scalar RSUExampleScenario.node[42].nic.mac1609_4 	RXTXLostPackets 	0
scalar RSUExampleScenario.node[42].nic.mac1609_4 	TotalLostPackets 	4
scalar RSUExampleScenario.node[42].nic.mac1609_4 	DroppedPacketsInMac 	0
scalar RSUExampleScenario.node[42].nic.mac1609_4 	TooLittleTime 	0
scalar RSUExampleScenario.node[42].nic.mac1609_4 	TimesIntoBackoff 	1
scalar RSUExampleScenario.node[42].nic.mac1609_4 	SlotsBackoff 	0
scalar RSUExampleScenario.node[42].nic.mac1609_4 	NumInternalContention 	0
scalar RSUExampleScenario.node[42].nic.mac1609_4 	totalBusyTime 	0.002593
scalar RSUExampleScenario.node[42].veinsmobility 	startTime 	78
scalar RSUExampleScenario.node[42].veinsmobility 	totalTime 	680
scalar RSUExampleScenario.node[42].veinsmobility 	stopTime 	759
scalar RSUExampleScenario.node[42].veinsmobility 	minSpeed 	0
scalar RSUExampleScenario.node[42].veinsmobility 	maxSpeed 	16.667073996626
scalar RSUExampleScenario.node[42].veinsmobility 	totalDistance 	3256.3678778394
scalar RSUExampleScenario.node[42].veinsmobility 	totalCO2Emission 	1230.9399940294
scalar RSUExampleScenario.node[69].nic.phy80211p 	busyTime 	4.8077544426494e-06
scalar RSUExampleScenario.node[69].nic.mac1609_4 	ReceivedUnicastPackets 	0
scalar RSUExampleScenario.node[69].nic.mac1609_4 	ReceivedBroadcasts 	18
scalar RSUExampleScenario.node[69].nic.mac1609_4 	SentPackets 	1
scalar RSUExampleScenario.node[69].nic.mac1609_4 	SNIRLostPackets 	13
scalar RSUExampleScenario.node[69].nic.mac1609_4 	RXTXLostPackets 	0
scalar RSUExampleScenario.node[69].nic.mac1609_4 	TotalLostPackets 	13
scalar RSUExampleScenario.node[69].nic.mac1609_4 	DroppedPacketsInMac 	0
scalar RSUExampleScenario.node[69].nic.mac1609_4 	TooLittleTime 	0
scalar RSUExampleScenario.node[69].nic.mac1609_4 	TimesIntoBackoff 	1
scalar RSUExampleScenario.node[69].nic.mac1609_4 	SlotsBackoff 	5
scalar RSUExampleScenario.node[69].nic.mac1609_4 	NumInternalContention 	0
scalar RSUExampleScenario.node[69].nic.mac1609_4 	totalBusyTime 	0.002401
scalar RSUExampleScenario.node[69].veinsmobility 	startTime 	142
scalar RSUExampleScenario.node[69].veinsmobility 	totalTime 	618
scalar RSUExampleScenario.node[69].veinsmobility 	stopTime 	761
scalar RSUExampleScenario.node[69].veinsmobility 	minSpeed 	0
scalar RSUExampleScenario.node[69].veinsmobility 	maxSpeed 	27.746925837453
scalar RSUExampleScenario.node[69].veinsmobility 	totalDistance 	3405.4676115961
scalar RSUExampleScenario.node[69].veinsmobility 	totalCO2Emission 	1324.0191633019
scalar RSUExampleScenario.node[68].nic.phy80211p 	busyTime 	4.776886035313e-06
scalar RSUExampleScenario.node[68].nic.mac1609_4 	ReceivedUnicastPackets 	0
scalar RSUExampleScenario.node[68].nic.mac1609_4 	ReceivedBroadcasts 	16
[...]
scalar RSUExampleScenario.node[376].veinsmobility 	minSpeed 	0
scalar RSUExampleScenario.node[376].veinsmobility 	maxSpeed 	27.770698600397
scalar RSUExampleScenario.node[376].veinsmobility 	totalDistance 	3397.6322244501
scalar RSUExampleScenario.node[376].veinsmobility 	totalCO2Emission 	1176.4315889073
scalar RSUExampleScenario.node[377].nic.phy80211p 	busyTime 	1.9764705882353e-06
scalar RSUExampleScenario.node[377].nic.mac1609_4 	ReceivedUnicastPackets 	0
scalar RSUExampleScenario.node[377].nic.mac1609_4 	ReceivedBroadcasts 	14
scalar RSUExampleScenario.node[377].nic.mac1609_4 	SentPackets 	1
scalar RSUExampleScenario.node[377].nic.mac1609_4 	SNIRLostPackets 	0
scalar RSUExampleScenario.node[377].nic.mac1609_4 	RXTXLostPackets 	0
scalar RSUExampleScenario.node[377].nic.mac1609_4 	TotalLostPackets 	0
scalar RSUExampleScenario.node[377].nic.mac1609_4 	DroppedPacketsInMac 	0
scalar RSUExampleScenario.node[377].nic.mac1609_4 	TooLittleTime 	0
scalar RSUExampleScenario.node[377].nic.mac1609_4 	TimesIntoBackoff 	1
scalar RSUExampleScenario.node[377].nic.mac1609_4 	SlotsBackoff 	5
scalar RSUExampleScenario.node[377].nic.mac1609_4 	NumInternalContention 	0
scalar RSUExampleScenario.node[377].nic.mac1609_4 	totalBusyTime 	0.001441
scalar RSUExampleScenario.node[377].veinsmobility 	startTime 	1950
scalar RSUExampleScenario.node[377].veinsmobility 	totalTime 	679
scalar RSUExampleScenario.node[377].veinsmobility 	stopTime 	2630
scalar RSUExampleScenario.node[377].veinsmobility 	minSpeed 	0
scalar RSUExampleScenario.node[377].veinsmobility 	maxSpeed 	27.766377063557
scalar RSUExampleScenario.node[377].veinsmobility 	totalDistance 	3399.9839410459
scalar RSUExampleScenario.node[377].veinsmobility 	totalCO2Emission 	1240.5818785772
scalar RSUExampleScenario.node[378].nic.phy80211p 	busyTime 	1.9764705882353e-06
scalar RSUExampleScenario.node[378].nic.mac1609_4 	ReceivedUnicastPackets 	0
scalar RSUExampleScenario.node[378].nic.mac1609_4 	ReceivedBroadcasts 	14
scalar RSUExampleScenario.node[378].nic.mac1609_4 	SentPackets 	1
scalar RSUExampleScenario.node[378].nic.mac1609_4 	SNIRLostPackets 	0
scalar RSUExampleScenario.node[378].nic.mac1609_4 	RXTXLostPackets 	0
scalar RSUExampleScenario.node[378].nic.mac1609_4 	TotalLostPackets 	0
scalar RSUExampleScenario.node[378].nic.mac1609_4 	DroppedPacketsInMac 	0
scalar RSUExampleScenario.node[378].nic.mac1609_4 	TooLittleTime 	0
scalar RSUExampleScenario.node[378].nic.mac1609_4 	TimesIntoBackoff 	1
scalar RSUExampleScenario.node[378].nic.mac1609_4 	SlotsBackoff 	2
scalar RSUExampleScenario.node[378].nic.mac1609_4 	NumInternalContention 	0
scalar RSUExampleScenario.node[378].nic.mac1609_4 	totalBusyTime 	0.001441
scalar RSUExampleScenario.node[378].veinsmobility 	startTime 	1954
scalar RSUExampleScenario.node[378].veinsmobility 	totalTime 	679
scalar RSUExampleScenario.node[378].veinsmobility 	stopTime 	2634
scalar RSUExampleScenario.node[378].veinsmobility 	minSpeed 	0
scalar RSUExampleScenario.node[378].veinsmobility 	maxSpeed 	27.750641490439
scalar RSUExampleScenario.node[378].veinsmobility 	totalDistance 	3395.6497089011
scalar RSUExampleScenario.node[378].veinsmobility 	totalCO2Emission 	1220.3196805494
scalar RSUExampleScenario.node[379].nic.phy80211p 	busyTime 	1.9911111111111e-06
scalar RSUExampleScenario.node[379].nic.mac1609_4 	ReceivedUnicastPackets 	0
scalar RSUExampleScenario.node[379].nic.mac1609_4 	ReceivedBroadcasts 	14
scalar RSUExampleScenario.node[379].nic.mac1609_4 	SentPackets 	1
scalar RSUExampleScenario.node[379].nic.mac1609_4 	SNIRLostPackets 	0
scalar RSUExampleScenario.node[379].nic.mac1609_4 	RXTXLostPackets 	0
scalar RSUExampleScenario.node[379].nic.mac1609_4 	TotalLostPackets 	0
scalar RSUExampleScenario.node[379].nic.mac1609_4 	DroppedPacketsInMac 	0
scalar RSUExampleScenario.node[379].nic.mac1609_4 	TooLittleTime 	0
scalar RSUExampleScenario.node[379].nic.mac1609_4 	TimesIntoBackoff 	1
scalar RSUExampleScenario.node[379].nic.mac1609_4 	SlotsBackoff 	1
scalar RSUExampleScenario.node[379].nic.mac1609_4 	NumInternalContention 	0
scalar RSUExampleScenario.node[379].nic.mac1609_4 	totalBusyTime 	0.001441
scalar RSUExampleScenario.node[379].veinsmobility 	startTime 	1962
scalar RSUExampleScenario.node[379].veinsmobility 	totalTime 	674
scalar RSUExampleScenario.node[379].veinsmobility 	stopTime 	2637
scalar RSUExampleScenario.node[379].veinsmobility 	minSpeed 	0
scalar RSUExampleScenario.node[379].veinsmobility 	maxSpeed 	27.759871945333
scalar RSUExampleScenario.node[379].veinsmobility 	totalDistance 	3390.8142082173
scalar RSUExampleScenario.node[379].veinsmobility 	totalCO2Emission 	1208.5611664812
scalar RSUExampleScenario.node[380].nic.phy80211p 	busyTime 	1.4210526315789e-06
scalar RSUExampleScenario.node[380].nic.mac1609_4 	ReceivedUnicastPackets 	0
scalar RSUExampleScenario.node[380].nic.mac1609_4 	ReceivedBroadcasts 	9
scalar RSUExampleScenario.node[380].nic.mac1609_4 	SentPackets 	1
scalar RSUExampleScenario.node[380].nic.mac1609_4 	SNIRLostPackets 	0
scalar RSUExampleScenario.node[380].nic.mac1609_4 	RXTXLostPackets 	0
scalar RSUExampleScenario.node[380].nic.mac1609_4 	TotalLostPackets 	0
scalar RSUExampleScenario.node[380].nic.mac1609_4 	DroppedPacketsInMac 	0
scalar RSUExampleScenario.node[380].nic.mac1609_4 	TooLittleTime 	0
scalar RSUExampleScenario.node[380].nic.mac1609_4 	TimesIntoBackoff 	1
scalar RSUExampleScenario.node[380].nic.mac1609_4 	SlotsBackoff 	4
scalar RSUExampleScenario.node[380].nic.mac1609_4 	NumInternalContention 	0
scalar RSUExampleScenario.node[380].nic.mac1609_4 	totalBusyTime 	0.000961
scalar RSUExampleScenario.node[380].veinsmobility 	startTime 	2091
scalar RSUExampleScenario.node[380].veinsmobility 	totalTime 	607
scalar RSUExampleScenario.node[380].veinsmobility 	stopTime 	2699
scalar RSUExampleScenario.node[380].veinsmobility 	minSpeed 	0
scalar RSUExampleScenario.node[380].veinsmobility 	maxSpeed 	27.768162371337
scalar RSUExampleScenario.node[380].veinsmobility 	totalDistance 	3398.7308485409
scalar RSUExampleScenario.node[380].veinsmobility 	totalCO2Emission 	1238.7923829031
scalar RSUExampleScenario.node[381].nic.phy80211p 	busyTime 	1.4187192118227e-06
scalar RSUExampleScenario.node[381].nic.mac1609_4 	ReceivedUnicastPackets 	0
scalar RSUExampleScenario.node[381].nic.mac1609_4 	ReceivedBroadcasts 	9
scalar RSUExampleScenario.node[381].nic.mac1609_4 	SentPackets 	1
scalar RSUExampleScenario.node[381].nic.mac1609_4 	SNIRLostPackets 	0
scalar RSUExampleScenario.node[381].nic.mac1609_4 	RXTXLostPackets 	0
scalar RSUExampleScenario.node[381].nic.mac1609_4 	TotalLostPackets 	0
scalar RSUExampleScenario.node[381].nic.mac1609_4 	DroppedPacketsInMac 	0
scalar RSUExampleScenario.node[381].nic.mac1609_4 	TooLittleTime 	0
scalar RSUExampleScenario.node[381].nic.mac1609_4 	TimesIntoBackoff 	2
scalar RSUExampleScenario.node[381].nic.mac1609_4 	SlotsBackoff 	5
scalar RSUExampleScenario.node[381].nic.mac1609_4 	NumInternalContention 	0
scalar RSUExampleScenario.node[381].nic.mac1609_4 	totalBusyTime 	0.000961
scalar RSUExampleScenario.node[381].veinsmobility 	startTime 	2094
scalar RSUExampleScenario.node[381].veinsmobility 	totalTime 	608
scalar RSUExampleScenario.node[381].veinsmobility 	stopTime 	2703
scalar RSUExampleScenario.node[381].veinsmobility 	minSpeed 	0
scalar RSUExampleScenario.node[381].veinsmobility 	maxSpeed 	27.776589358
scalar RSUExampleScenario.node[381].veinsmobility 	totalDistance 	3396.8359908906
scalar RSUExampleScenario.node[381].veinsmobility 	totalCO2Emission 	1189.822066259
scalar RSUExampleScenario.node[382].nic.phy80211p 	busyTime 	1.4048780487805e-06
scalar RSUExampleScenario.node[382].nic.mac1609_4 	ReceivedUnicastPackets 	0
scalar RSUExampleScenario.node[382].nic.mac1609_4 	ReceivedBroadcasts 	9
scalar RSUExampleScenario.node[382].nic.mac1609_4 	SentPackets 	1
scalar RSUExampleScenario.node[382].nic.mac1609_4 	SNIRLostPackets 	0
scalar RSUExampleScenario.node[382].nic.mac1609_4 	RXTXLostPackets 	0
scalar RSUExampleScenario.node[382].nic.mac1609_4 	TotalLostPackets 	0
scalar RSUExampleScenario.node[382].nic.mac1609_4 	DroppedPacketsInMac 	0
scalar RSUExampleScenario.node[382].nic.mac1609_4 	TooLittleTime 	0
scalar RSUExampleScenario.node[382].nic.mac1609_4 	TimesIntoBackoff 	2
scalar RSUExampleScenario.node[382].nic.mac1609_4 	SlotsBackoff 	7
scalar RSUExampleScenario.node[382].nic.mac1609_4 	NumInternalContention 	0
scalar RSUExampleScenario.node[382].nic.mac1609_4 	totalBusyTime 	0.000961
scalar RSUExampleScenario.node[382].veinsmobility 	startTime 	2096
scalar RSUExampleScenario.node[382].veinsmobility 	totalTime 	614
scalar RSUExampleScenario.node[382].veinsmobility 	stopTime 	2711
scalar RSUExampleScenario.node[382].veinsmobility 	minSpeed 	0
scalar RSUExampleScenario.node[382].veinsmobility 	maxSpeed 	27.773271428106
scalar RSUExampleScenario.node[382].veinsmobility 	totalDistance 	3394.7938333946
scalar RSUExampleScenario.node[382].veinsmobility 	totalCO2Emission 	1176.0928284452
scalar RSUExampleScenario.node[383].nic.phy80211p 	busyTime 	1.3521126760563e-06
scalar RSUExampleScenario.node[383].nic.mac1609_4 	ReceivedUnicastPackets 	0
scalar RSUExampleScenario.node[383].nic.mac1609_4 	ReceivedBroadcasts 	9
scalar RSUExampleScenario.node[383].nic.mac1609_4 	SentPackets 	1
scalar RSUExampleScenario.node[383].nic.mac1609_4 	SNIRLostPackets 	0
scalar RSUExampleScenario.node[383].nic.mac1609_4 	RXTXLostPackets 	0
scalar RSUExampleScenario.node[383].nic.mac1609_4 	TotalLostPackets 	0
scalar RSUExampleScenario.node[383].nic.mac1609_4 	DroppedPacketsInMac 	0
scalar RSUExampleScenario.node[383].nic.mac1609_4 	TooLittleTime 	0
scalar RSUExampleScenario.node[383].nic.mac1609_4 	TimesIntoBackoff 	1
scalar RSUExampleScenario.node[383].nic.mac1609_4 	SlotsBackoff 	1
scalar RSUExampleScenario.node[383].nic.mac1609_4 	NumInternalContention 	0
scalar RSUExampleScenario.node[383].nic.mac1609_4 	totalBusyTime 	0.000961
scalar RSUExampleScenario.node[383].veinsmobility 	startTime 	2098
scalar RSUExampleScenario.node[383].veinsmobility 	totalTime 	638
scalar RSUExampleScenario.node[383].veinsmobility 	stopTime 	2737
scalar RSUExampleScenario.node[383].veinsmobility 	minSpeed 	0
scalar RSUExampleScenario.node[383].veinsmobility 	maxSpeed 	27.778193800009
scalar RSUExampleScenario.node[383].veinsmobility 	totalDistance 	3393.8051205097
scalar RSUExampleScenario.node[383].veinsmobility 	totalCO2Emission 	1202.1209883891
scalar RSUExampleScenario.node[384].nic.phy80211p 	busyTime 	1.3457943925234e-06
scalar RSUExampleScenario.node[384].nic.mac1609_4 	ReceivedUnicastPackets 	0
scalar RSUExampleScenario.node[384].nic.mac1609_4 	ReceivedBroadcasts 	9
scalar RSUExampleScenario.node[384].nic.mac1609_4 	SentPackets 	1
scalar RSUExampleScenario.node[384].nic.mac1609_4 	SNIRLostPackets 	0
scalar RSUExampleScenario.node[384].nic.mac1609_4 	RXTXLostPackets 	0
scalar RSUExampleScenario.node[384].nic.mac1609_4 	TotalLostPackets 	0
scalar RSUExampleScenario.node[384].nic.mac1609_4 	DroppedPacketsInMac 	0
scalar RSUExampleScenario.node[384].nic.mac1609_4 	TooLittleTime 	0
scalar RSUExampleScenario.node[384].nic.mac1609_4 	TimesIntoBackoff 	1
scalar RSUExampleScenario.node[384].nic.mac1609_4 	SlotsBackoff 	5
scalar RSUExampleScenario.node[384].nic.mac1609_4 	NumInternalContention 	0
scalar RSUExampleScenario.node[384].nic.mac1609_4 	totalBusyTime 	0.000961
scalar RSUExampleScenario.node[384].veinsmobility 	startTime 	2100
scalar RSUExampleScenario.node[384].veinsmobility 	totalTime 	641
scalar RSUExampleScenario.node[384].veinsmobility 	stopTime 	2742
scalar RSUExampleScenario.node[384].veinsmobility 	minSpeed 	0
scalar RSUExampleScenario.node[384].veinsmobility 	maxSpeed 	27.779654905914
scalar RSUExampleScenario.node[384].veinsmobility 	totalDistance 	3398.0581696092
scalar RSUExampleScenario.node[384].veinsmobility 	totalCO2Emission 	1178.1701828824
scalar RSUExampleScenario.node[385].nic.phy80211p 	busyTime 	1.3353941267388e-06
scalar RSUExampleScenario.node[385].nic.mac1609_4 	ReceivedUnicastPackets 	0
scalar RSUExampleScenario.node[385].nic.mac1609_4 	ReceivedBroadcasts 	9
scalar RSUExampleScenario.node[385].nic.mac1609_4 	SentPackets 	1
scalar RSUExampleScenario.node[385].nic.mac1609_4 	SNIRLostPackets 	0
scalar RSUExampleScenario.node[385].nic.mac1609_4 	RXTXLostPackets 	0
scalar RSUExampleScenario.node[385].nic.mac1609_4 	TotalLostPackets 	0
scalar RSUExampleScenario.node[385].nic.mac1609_4 	DroppedPacketsInMac 	0
scalar RSUExampleScenario.node[385].nic.mac1609_4 	TooLittleTime 	0
scalar RSUExampleScenario.node[385].nic.mac1609_4 	TimesIntoBackoff 	2
scalar RSUExampleScenario.node[385].nic.mac1609_4 	SlotsBackoff 	9
scalar RSUExampleScenario.node[385].nic.mac1609_4 	NumInternalContention 	0
scalar RSUExampleScenario.node[385].nic.mac1609_4 	totalBusyTime 	0.000961
scalar RSUExampleScenario.node[385].veinsmobility 	startTime 	2102
scalar RSUExampleScenario.node[385].veinsmobility 	totalTime 	646
scalar RSUExampleScenario.node[385].veinsmobility 	stopTime 	2749
scalar RSUExampleScenario.node[385].veinsmobility 	minSpeed 	0
scalar RSUExampleScenario.node[385].veinsmobility 	maxSpeed 	27.779208782022
scalar RSUExampleScenario.node[385].veinsmobility 	totalDistance 	3399.729786466
scalar RSUExampleScenario.node[385].veinsmobility 	totalCO2Emission 	1216.0879383918
scalar RSUExampleScenario.node[386].nic.phy80211p 	busyTime 	1.2613138686131e-06
scalar RSUExampleScenario.node[386].nic.mac1609_4 	ReceivedUnicastPackets 	0
scalar RSUExampleScenario.node[386].nic.mac1609_4 	ReceivedBroadcasts 	9
scalar RSUExampleScenario.node[386].nic.mac1609_4 	SentPackets 	1
scalar RSUExampleScenario.node[386].nic.mac1609_4 	SNIRLostPackets 	0
scalar RSUExampleScenario.node[386].nic.mac1609_4 	RXTXLostPackets 	0
scalar RSUExampleScenario.node[386].nic.mac1609_4 	TotalLostPackets 	0
scalar RSUExampleScenario.node[386].nic.mac1609_4 	DroppedPacketsInMac 	0
scalar RSUExampleScenario.node[386].nic.mac1609_4 	TooLittleTime 	0
scalar RSUExampleScenario.node[386].nic.mac1609_4 	TimesIntoBackoff 	1
scalar RSUExampleScenario.node[386].nic.mac1609_4 	SlotsBackoff 	6
scalar RSUExampleScenario.node[386].nic.mac1609_4 	NumInternalContention 	0
scalar RSUExampleScenario.node[386].nic.mac1609_4 	totalBusyTime 	0.000961
scalar RSUExampleScenario.node[386].veinsmobility 	startTime 	2104
scalar RSUExampleScenario.node[386].veinsmobility 	totalTime 	684
scalar RSUExampleScenario.node[386].veinsmobility 	stopTime 	2789
scalar RSUExampleScenario.node[386].veinsmobility 	minSpeed 	0
scalar RSUExampleScenario.node[386].veinsmobility 	maxSpeed 	27.770447674129
scalar RSUExampleScenario.node[386].veinsmobility 	totalDistance 	3393.5030272332
scalar RSUExampleScenario.node[386].veinsmobility 	totalCO2Emission 	1254.093073684
scalar RSUExampleScenario.node[387].nic.phy80211p 	busyTime 	1.2558139534884e-06
scalar RSUExampleScenario.node[387].nic.mac1609_4 	ReceivedUnicastPackets 	0
scalar RSUExampleScenario.node[387].nic.mac1609_4 	ReceivedBroadcasts 	9
scalar RSUExampleScenario.node[387].nic.mac1609_4 	SentPackets 	1
scalar RSUExampleScenario.node[387].nic.mac1609_4 	SNIRLostPackets 	0
scalar RSUExampleScenario.node[387].nic.mac1609_4 	RXTXLostPackets 	0
scalar RSUExampleScenario.node[387].nic.mac1609_4 	TotalLostPackets 	0
scalar RSUExampleScenario.node[387].nic.mac1609_4 	DroppedPacketsInMac 	0
scalar RSUExampleScenario.node[387].nic.mac1609_4 	TooLittleTime 	0
scalar RSUExampleScenario.node[387].nic.mac1609_4 	TimesIntoBackoff 	1
scalar RSUExampleScenario.node[387].nic.mac1609_4 	SlotsBackoff 	0
scalar RSUExampleScenario.node[387].nic.mac1609_4 	NumInternalContention 	0
scalar RSUExampleScenario.node[387].nic.mac1609_4 	totalBusyTime 	0.000961
scalar RSUExampleScenario.node[387].veinsmobility 	startTime 	2106
scalar RSUExampleScenario.node[387].veinsmobility 	totalTime 	687
scalar RSUExampleScenario.node[387].veinsmobility 	stopTime 	2794
scalar RSUExampleScenario.node[387].veinsmobility 	minSpeed 	0
scalar RSUExampleScenario.node[387].veinsmobility 	maxSpeed 	27.769786060632
scalar RSUExampleScenario.node[387].veinsmobility 	totalDistance 	3399.599121951
scalar RSUExampleScenario.node[387].veinsmobility 	totalCO2Emission 	1271.4140572717
scalar RSUExampleScenario.node[388].nic.phy80211p 	busyTime 	1.2539912917271e-06
scalar RSUExampleScenario.node[388].nic.mac1609_4 	ReceivedUnicastPackets 	0
scalar RSUExampleScenario.node[388].nic.mac1609_4 	ReceivedBroadcasts 	9
scalar RSUExampleScenario.node[388].nic.mac1609_4 	SentPackets 	1
scalar RSUExampleScenario.node[388].nic.mac1609_4 	SNIRLostPackets 	0
scalar RSUExampleScenario.node[388].nic.mac1609_4 	RXTXLostPackets 	0
scalar RSUExampleScenario.node[388].nic.mac1609_4 	TotalLostPackets 	0
scalar RSUExampleScenario.node[388].nic.mac1609_4 	DroppedPacketsInMac 	0
scalar RSUExampleScenario.node[388].nic.mac1609_4 	TooLittleTime 	0
scalar RSUExampleScenario.node[388].nic.mac1609_4 	TimesIntoBackoff 	1
scalar RSUExampleScenario.node[388].nic.mac1609_4 	SlotsBackoff 	6
scalar RSUExampleScenario.node[388].nic.mac1609_4 	NumInternalContention 	0
scalar RSUExampleScenario.node[388].nic.mac1609_4 	totalBusyTime 	0.000961
scalar RSUExampleScenario.node[388].veinsmobility 	startTime 	2108
scalar RSUExampleScenario.node[388].veinsmobility 	totalTime 	688
scalar RSUExampleScenario.node[388].veinsmobility 	stopTime 	2797
scalar RSUExampleScenario.node[388].veinsmobility 	minSpeed 	0
scalar RSUExampleScenario.node[388].veinsmobility 	maxSpeed 	27.776762617814
scalar RSUExampleScenario.node[388].veinsmobility 	totalDistance 	3394.0800367756
scalar RSUExampleScenario.node[388].veinsmobility 	totalCO2Emission 	1236.3320051729
scalar RSUExampleScenario.node[389].nic.phy80211p 	busyTime 	1.2503617945007e-06
scalar RSUExampleScenario.node[389].nic.mac1609_4 	ReceivedUnicastPackets 	0
scalar RSUExampleScenario.node[389].nic.mac1609_4 	ReceivedBroadcasts 	9
scalar RSUExampleScenario.node[389].nic.mac1609_4 	SentPackets 	1
scalar RSUExampleScenario.node[389].nic.mac1609_4 	SNIRLostPackets 	0
scalar RSUExampleScenario.node[389].nic.mac1609_4 	RXTXLostPackets 	0
scalar RSUExampleScenario.node[389].nic.mac1609_4 	TotalLostPackets 	0
scalar RSUExampleScenario.node[389].nic.mac1609_4 	DroppedPacketsInMac 	0
scalar RSUExampleScenario.node[389].nic.mac1609_4 	TooLittleTime 	0
scalar RSUExampleScenario.node[389].nic.mac1609_4 	TimesIntoBackoff 	1
scalar RSUExampleScenario.node[389].nic.mac1609_4 	SlotsBackoff 	1
scalar RSUExampleScenario.node[389].nic.mac1609_4 	NumInternalContention 	0
scalar RSUExampleScenario.node[389].nic.mac1609_4 	totalBusyTime 	0.000961
scalar RSUExampleScenario.node[389].veinsmobility 	startTime 	2110
scalar RSUExampleScenario.node[389].veinsmobility 	totalTime 	690
scalar RSUExampleScenario.node[389].veinsmobility 	stopTime 	2801
scalar RSUExampleScenario.node[389].veinsmobility 	minSpeed 	0
scalar RSUExampleScenario.node[389].veinsmobility 	maxSpeed 	27.769009822588
scalar RSUExampleScenario.node[389].veinsmobility 	totalDistance 	3397.7642337501
scalar RSUExampleScenario.node[389].veinsmobility 	totalCO2Emission 	1230.3363699772
scalar RSUExampleScenario.rsu[0].nic.phy80211p 	busyTime 	1.056e-07
scalar RSUExampleScenario.rsu[0].nic.mac1609_4 	ReceivedUnicastPackets 	0
scalar RSUExampleScenario.rsu[0].nic.mac1609_4 	ReceivedBroadcasts 	9
scalar RSUExampleScenario.rsu[0].nic.mac1609_4 	SentPackets 	1
scalar RSUExampleScenario.rsu[0].nic.mac1609_4 	SNIRLostPackets 	2
scalar RSUExampleScenario.rsu[0].nic.mac1609_4 	RXTXLostPackets 	0
scalar RSUExampleScenario.rsu[0].nic.mac1609_4 	TotalLostPackets 	2
scalar RSUExampleScenario.rsu[0].nic.mac1609_4 	DroppedPacketsInMac 	0
scalar RSUExampleScenario.rsu[0].nic.mac1609_4 	TooLittleTime 	0
scalar RSUExampleScenario.rsu[0].nic.mac1609_4 	TimesIntoBackoff 	1
scalar RSUExampleScenario.rsu[0].nic.mac1609_4 	SlotsBackoff 	6
scalar RSUExampleScenario.rsu[0].nic.mac1609_4 	NumInternalContention 	0
scalar RSUExampleScenario.rsu[0].nic.mac1609_4 	totalBusyTime 	0.001057
