version 2
run debug-0-20161220-12:44:05-4437
attr configname debug
attr datetime 20161220-12:44:05
attr experiment debug
attr inifile omnetpp.ini
attr iterationvars ""
attr iterationvars2 $repetition=0
attr measurement ""
attr network RSUExampleScenario
attr processid 4437
attr repetition 0
attr replication #0
attr resultdir results
attr runnumber 0
attr seedset 0
param **.coreDebug false
param **.debug false
param *.**.nic.mac1609_4.bitrate 27Mbps
param *.**.nic.mac1609_4.txPower 20mW
param *.**.nic.mac1609_4.useServiceChannel false
param *.**.nic.phy80211p.analogueModels "xmldoc(\"config.xml\")"
param *.**.nic.phy80211p.decider "xmldoc(\"config.xml\")"
param *.**.nic.phy80211p.sensitivity -89dBm
param *.**.nic.phy80211p.thermalNoise -110dBm
param *.**.nic.phy80211p.usePropagationDelay true
param *.**.nic.phy80211p.useThermalNoise true
param *.annotations.draw false
param *.connectionManager.alpha 2.0
param *.connectionManager.carrierFrequency "5.890e9 Hz"
param *.connectionManager.pMax 20mW
param *.connectionManager.sat -89dBm
param *.connectionManager.sendDirect true
param *.manager.autoShutdown true
param *.manager.host "\"localhost\""
param *.manager.launchConfig "xmldoc(\"erlangen.launchd.xml\")"
param *.manager.margin 25
param *.manager.moduleDisplayString "\"\""
param *.manager.moduleName "\"node\""
param *.manager.moduleType "\"org.car2x.veins.nodes.Car\""
param *.manager.port 9999
param *.manager.updateInterval 1s
param *.node[*].appl.beaconInterval 1s
param *.node[*].appl.beaconPriority 3
param *.node[*].appl.dataOnSch false
param *.node[*].appl.dataPriority 2
param *.node[*].appl.debug false
param *.node[*].appl.headerLength "256 bit"
param *.node[*].appl.maxOffset 0.005s
param *.node[*].appl.sendBeacons false
param *.node[*].appl.sendData true
param *.node[*].applType "\"TraCIDemo11p\""
param *.node[*].mobilityType "\"TraCIMobility\""
param *.node[*].mobilityType.debug true
param *.node[*].veinsmobility.accidentCount 5
param *.node[*].veinsmobility.accidentDuration 43s
param *.node[*].veinsmobility.accidentStart 85s
param *.node[*].veinsmobility.x 0
param *.node[*].veinsmobility.y 0
param *.node[*].veinsmobility.z 1.895
param *.node[*].veinsmobilityType "\"org.car2x.veins.modules.mobility.traci.TraCIMobility\""
param *.node[*].veinsmobilityType.debug true
param *.obstacles.debug false
param *.obstacles.obstacles "xmldoc(\"config.xml\", \"//AnalogueModel[@type='SimpleObstacleShadowing']/obstacles\")"
param *.playgroundSizeX 2500m
param *.playgroundSizeY 2500m
param *.playgroundSizeZ 50m
param *.rsu[*].appl.beaconInterval 1s
param *.rsu[*].appl.beaconPriority 3
param *.rsu[*].appl.dataOnSch false
param *.rsu[*].appl.dataPriority 2
param *.rsu[*].appl.debug false
param *.rsu[*].appl.headerLength "256 bit"
param *.rsu[*].appl.maxOffset 0.005s
param *.rsu[*].appl.sendBeacons false
param *.rsu[*].appl.sendData true
param *.rsu[*].applType "\"TraCIDemoRSU11p\""
param *.rsu[0].mobility.x 2000
param *.rsu[0].mobility.y 2000
param *.rsu[0].mobility.z 3
param *.world.use2D false
param *.world.useTorus false

scalar RSUExampleScenario.node[0].nic.phy80211p 	busyTime 	2.9179331306991e-07
scalar RSUExampleScenario.node[0].nic.mac1609_4 	ReceivedUnicastPackets 	0
scalar RSUExampleScenario.node[0].nic.mac1609_4 	ReceivedBroadcasts 	0
scalar RSUExampleScenario.node[0].nic.mac1609_4 	SentPackets 	1
scalar RSUExampleScenario.node[0].nic.mac1609_4 	SNIRLostPackets 	1
scalar RSUExampleScenario.node[0].nic.mac1609_4 	RXTXLostPackets 	0
scalar RSUExampleScenario.node[0].nic.mac1609_4 	TotalLostPackets 	1
scalar RSUExampleScenario.node[0].nic.mac1609_4 	DroppedPacketsInMac 	0
scalar RSUExampleScenario.node[0].nic.mac1609_4 	TooLittleTime 	0
scalar RSUExampleScenario.node[0].nic.mac1609_4 	TimesIntoBackoff 	1
scalar RSUExampleScenario.node[0].nic.mac1609_4 	SlotsBackoff 	1
scalar RSUExampleScenario.node[0].nic.mac1609_4 	NumInternalContention 	0
scalar RSUExampleScenario.node[0].nic.mac1609_4 	totalBusyTime 	0.000193
scalar RSUExampleScenario.node[0].veinsmobility 	startTime 	1
scalar RSUExampleScenario.node[0].veinsmobility 	totalTime 	328
scalar RSUExampleScenario.node[0].veinsmobility 	stopTime 	330
scalar RSUExampleScenario.node[0].veinsmobility 	minSpeed 	0
scalar RSUExampleScenario.node[0].veinsmobility 	maxSpeed 	27.777907903148
scalar RSUExampleScenario.node[0].veinsmobility 	totalDistance 	3390.9215264715
scalar RSUExampleScenario.node[0].veinsmobility 	totalCO2Emission 	944.54743790788
scalar RSUExampleScenario.node[4].nic.phy80211p 	busyTime 	4.8403361344538e-06
scalar RSUExampleScenario.node[4].nic.mac1609_4 	ReceivedUnicastPackets 	0
scalar RSUExampleScenario.node[4].nic.mac1609_4 	ReceivedBroadcasts 	18
scalar RSUExampleScenario.node[4].nic.mac1609_4 	SentPackets 	1
scalar RSUExampleScenario.node[4].nic.mac1609_4 	SNIRLostPackets 	0
scalar RSUExampleScenario.node[4].nic.mac1609_4 	RXTXLostPackets 	0
scalar RSUExampleScenario.node[4].nic.mac1609_4 	TotalLostPackets 	0
scalar RSUExampleScenario.node[4].nic.mac1609_4 	DroppedPacketsInMac 	0
scalar RSUExampleScenario.node[4].nic.mac1609_4 	TooLittleTime 	0
scalar RSUExampleScenario.node[4].nic.mac1609_4 	TimesIntoBackoff 	1
scalar RSUExampleScenario.node[4].nic.mac1609_4 	SlotsBackoff 	5
scalar RSUExampleScenario.node[4].nic.mac1609_4 	NumInternalContention 	0
scalar RSUExampleScenario.node[4].nic.mac1609_4 	totalBusyTime 	0.001825
scalar RSUExampleScenario.node[4].veinsmobility 	startTime 	8
scalar RSUExampleScenario.node[4].veinsmobility 	totalTime 	356
scalar RSUExampleScenario.node[4].veinsmobility 	stopTime 	365
scalar RSUExampleScenario.node[4].veinsmobility 	minSpeed 	0
scalar RSUExampleScenario.node[4].veinsmobility 	maxSpeed 	27.768998091621
scalar RSUExampleScenario.node[4].veinsmobility 	totalDistance 	3399.5681450096
scalar RSUExampleScenario.node[4].veinsmobility 	totalCO2Emission 	926.33024144695
scalar RSUExampleScenario.node[1].nic.phy80211p 	busyTime 	4.18401937046e-06
scalar RSUExampleScenario.node[1].nic.mac1609_4 	ReceivedUnicastPackets 	0
scalar RSUExampleScenario.node[1].nic.mac1609_4 	ReceivedBroadcasts 	18
scalar RSUExampleScenario.node[1].nic.mac1609_4 	SentPackets 	1
scalar RSUExampleScenario.node[1].nic.mac1609_4 	SNIRLostPackets 	0
scalar RSUExampleScenario.node[1].nic.mac1609_4 	RXTXLostPackets 	0
scalar RSUExampleScenario.node[1].nic.mac1609_4 	TotalLostPackets 	0
scalar RSUExampleScenario.node[1].nic.mac1609_4 	DroppedPacketsInMac 	0
scalar RSUExampleScenario.node[1].nic.mac1609_4 	TooLittleTime 	0
scalar RSUExampleScenario.node[1].nic.mac1609_4 	TimesIntoBackoff 	2
scalar RSUExampleScenario.node[1].nic.mac1609_4 	SlotsBackoff 	4
scalar RSUExampleScenario.node[1].nic.mac1609_4 	NumInternalContention 	0
scalar RSUExampleScenario.node[1].nic.mac1609_4 	totalBusyTime 	0.001825
scalar RSUExampleScenario.node[1].veinsmobility 	startTime 	3
scalar RSUExampleScenario.node[1].veinsmobility 	totalTime 	412
scalar RSUExampleScenario.node[1].veinsmobility 	stopTime 	416
scalar RSUExampleScenario.node[1].veinsmobility 	minSpeed 	0
scalar RSUExampleScenario.node[1].veinsmobility 	maxSpeed 	27.765426829853
scalar RSUExampleScenario.node[1].veinsmobility 	totalDistance 	3386.8589617538
scalar RSUExampleScenario.node[1].veinsmobility 	totalCO2Emission 	960.00744567811
scalar RSUExampleScenario.node[6].nic.phy80211p 	busyTime 	4.8114558472554e-06
scalar RSUExampleScenario.node[6].nic.mac1609_4 	ReceivedUnicastPackets 	0
scalar RSUExampleScenario.node[6].nic.mac1609_4 	ReceivedBroadcasts 	19
scalar RSUExampleScenario.node[6].nic.mac1609_4 	SentPackets 	1
scalar RSUExampleScenario.node[6].nic.mac1609_4 	SNIRLostPackets 	2
scalar RSUExampleScenario.node[6].nic.mac1609_4 	RXTXLostPackets 	0
scalar RSUExampleScenario.node[6].nic.mac1609_4 	TotalLostPackets 	2
scalar RSUExampleScenario.node[6].nic.mac1609_4 	DroppedPacketsInMac 	0
scalar RSUExampleScenario.node[6].nic.mac1609_4 	TooLittleTime 	0
scalar RSUExampleScenario.node[6].nic.mac1609_4 	TimesIntoBackoff 	2
scalar RSUExampleScenario.node[6].nic.mac1609_4 	SlotsBackoff 	9
scalar RSUExampleScenario.node[6].nic.mac1609_4 	NumInternalContention 	0
scalar RSUExampleScenario.node[6].nic.mac1609_4 	totalBusyTime 	0.002017
scalar RSUExampleScenario.node[6].veinsmobility 	startTime 	12
scalar RSUExampleScenario.node[6].veinsmobility 	totalTime 	418
scalar RSUExampleScenario.node[6].veinsmobility 	stopTime 	431
scalar RSUExampleScenario.node[6].veinsmobility 	minSpeed 	0
scalar RSUExampleScenario.node[6].veinsmobility 	maxSpeed 	27.77667870646
scalar RSUExampleScenario.node[6].veinsmobility 	totalDistance 	3390.2755894743
scalar RSUExampleScenario.node[6].veinsmobility 	totalCO2Emission 	917.48663024991
scalar RSUExampleScenario.node[3].nic.phy80211p 	busyTime 	4.0468384074941e-06
scalar RSUExampleScenario.node[3].nic.mac1609_4 	ReceivedUnicastPackets 	0
scalar RSUExampleScenario.node[3].nic.mac1609_4 	ReceivedBroadcasts 	18
scalar RSUExampleScenario.node[3].nic.mac1609_4 	SentPackets 	1
scalar RSUExampleScenario.node[3].nic.mac1609_4 	SNIRLostPackets 	0
scalar RSUExampleScenario.node[3].nic.mac1609_4 	RXTXLostPackets 	0
scalar RSUExampleScenario.node[3].nic.mac1609_4 	TotalLostPackets 	0
scalar RSUExampleScenario.node[3].nic.mac1609_4 	DroppedPacketsInMac 	0
scalar RSUExampleScenario.node[3].nic.mac1609_4 	TooLittleTime 	0
scalar RSUExampleScenario.node[3].nic.mac1609_4 	TimesIntoBackoff 	1
scalar RSUExampleScenario.node[3].nic.mac1609_4 	SlotsBackoff 	5
scalar RSUExampleScenario.node[3].nic.mac1609_4 	NumInternalContention 	0
scalar RSUExampleScenario.node[3].nic.mac1609_4 	totalBusyTime 	0.001825
scalar RSUExampleScenario.node[3].veinsmobility 	startTime 	7
scalar RSUExampleScenario.node[3].veinsmobility 	totalTime 	426
scalar RSUExampleScenario.node[3].veinsmobility 	stopTime 	434
scalar RSUExampleScenario.node[3].veinsmobility 	minSpeed 	0
scalar RSUExampleScenario.node[3].veinsmobility 	maxSpeed 	27.765308549618
scalar RSUExampleScenario.node[3].veinsmobility 	totalDistance 	3404.2640370291
scalar RSUExampleScenario.node[3].veinsmobility 	totalCO2Emission 	1106.8617314235
scalar RSUExampleScenario.node[2].nic.phy80211p 	busyTime 	4.0092807424594e-06
scalar RSUExampleScenario.node[2].nic.mac1609_4 	ReceivedUnicastPackets 	0
scalar RSUExampleScenario.node[2].nic.mac1609_4 	ReceivedBroadcasts 	18
scalar RSUExampleScenario.node[2].nic.mac1609_4 	SentPackets 	1
scalar RSUExampleScenario.node[2].nic.mac1609_4 	SNIRLostPackets 	0
scalar RSUExampleScenario.node[2].nic.mac1609_4 	RXTXLostPackets 	0
scalar RSUExampleScenario.node[2].nic.mac1609_4 	TotalLostPackets 	0
scalar RSUExampleScenario.node[2].nic.mac1609_4 	DroppedPacketsInMac 	0
scalar RSUExampleScenario.node[2].nic.mac1609_4 	TooLittleTime 	0
scalar RSUExampleScenario.node[2].nic.mac1609_4 	TimesIntoBackoff 	1
scalar RSUExampleScenario.node[2].nic.mac1609_4 	SlotsBackoff 	2
scalar RSUExampleScenario.node[2].nic.mac1609_4 	NumInternalContention 	0
scalar RSUExampleScenario.node[2].nic.mac1609_4 	totalBusyTime 	0.001825
scalar RSUExampleScenario.node[2].veinsmobility 	startTime 	5
scalar RSUExampleScenario.node[2].veinsmobility 	totalTime 	430
scalar RSUExampleScenario.node[2].veinsmobility 	stopTime 	436
scalar RSUExampleScenario.node[2].veinsmobility 	minSpeed 	0
scalar RSUExampleScenario.node[2].veinsmobility 	maxSpeed 	27.764206177182
scalar RSUExampleScenario.node[2].veinsmobility 	totalDistance 	3395.5560576336
scalar RSUExampleScenario.node[2].veinsmobility 	totalCO2Emission 	1092.7220978811
scalar RSUExampleScenario.node[7].nic.phy80211p 	busyTime 	4.3438914027149e-06
scalar RSUExampleScenario.node[7].nic.mac1609_4 	ReceivedUnicastPackets 	0
scalar RSUExampleScenario.node[7].nic.mac1609_4 	ReceivedBroadcasts 	18
scalar RSUExampleScenario.node[7].nic.mac1609_4 	SentPackets 	1
scalar RSUExampleScenario.node[7].nic.mac1609_4 	SNIRLostPackets 	2
scalar RSUExampleScenario.node[7].nic.mac1609_4 	RXTXLostPackets 	0
scalar RSUExampleScenario.node[7].nic.mac1609_4 	TotalLostPackets 	2
scalar RSUExampleScenario.node[7].nic.mac1609_4 	DroppedPacketsInMac 	0
scalar RSUExampleScenario.node[7].nic.mac1609_4 	TooLittleTime 	0
scalar RSUExampleScenario.node[7].nic.mac1609_4 	TimesIntoBackoff 	1
scalar RSUExampleScenario.node[7].nic.mac1609_4 	SlotsBackoff 	4
scalar RSUExampleScenario.node[7].nic.mac1609_4 	NumInternalContention 	0
scalar RSUExampleScenario.node[7].nic.mac1609_4 	totalBusyTime 	0.001921
scalar RSUExampleScenario.node[7].veinsmobility 	startTime 	14
scalar RSUExampleScenario.node[7].veinsmobility 	totalTime 	441
scalar RSUExampleScenario.node[7].veinsmobility 	stopTime 	456
scalar RSUExampleScenario.node[7].veinsmobility 	minSpeed 	0
scalar RSUExampleScenario.node[7].veinsmobility 	maxSpeed 	27.773555454696
scalar RSUExampleScenario.node[7].veinsmobility 	totalDistance 	3402.1288795043
scalar RSUExampleScenario.node[7].veinsmobility 	totalCO2Emission 	1088.903435927
scalar RSUExampleScenario.node[5].nic.phy80211p 	busyTime 	3.7224489795918e-06
scalar RSUExampleScenario.node[5].nic.mac1609_4 	ReceivedUnicastPackets 	0
scalar RSUExampleScenario.node[5].nic.mac1609_4 	ReceivedBroadcasts 	17
scalar RSUExampleScenario.node[5].nic.mac1609_4 	SentPackets 	1
scalar RSUExampleScenario.node[5].nic.mac1609_4 	SNIRLostPackets 	2
scalar RSUExampleScenario.node[5].nic.mac1609_4 	RXTXLostPackets 	0
scalar RSUExampleScenario.node[5].nic.mac1609_4 	TotalLostPackets 	2
scalar RSUExampleScenario.node[5].nic.mac1609_4 	DroppedPacketsInMac 	0
scalar RSUExampleScenario.node[5].nic.mac1609_4 	TooLittleTime 	0
scalar RSUExampleScenario.node[5].nic.mac1609_4 	TimesIntoBackoff 	1
scalar RSUExampleScenario.node[5].nic.mac1609_4 	SlotsBackoff 	7
scalar RSUExampleScenario.node[5].nic.mac1609_4 	NumInternalContention 	0
scalar RSUExampleScenario.node[5].nic.mac1609_4 	totalBusyTime 	0.001825
scalar RSUExampleScenario.node[5].veinsmobility 	startTime 	10
scalar RSUExampleScenario.node[5].veinsmobility 	totalTime 	489
scalar RSUExampleScenario.node[5].veinsmobility 	stopTime 	500
scalar RSUExampleScenario.node[5].veinsmobility 	minSpeed 	0
scalar RSUExampleScenario.node[5].veinsmobility 	maxSpeed 	27.777793873046
scalar RSUExampleScenario.node[5].veinsmobility 	totalDistance 	3390.2004110837
scalar RSUExampleScenario.node[5].veinsmobility 	totalCO2Emission 	1112.7470207199
scalar RSUExampleScenario.node[9].nic.phy80211p 	busyTime 	3.9506172839506e-06
scalar RSUExampleScenario.node[9].nic.mac1609_4 	ReceivedUnicastPackets 	0
scalar RSUExampleScenario.node[9].nic.mac1609_4 	ReceivedBroadcasts 	18
scalar RSUExampleScenario.node[9].nic.mac1609_4 	SentPackets 	1
scalar RSUExampleScenario.node[9].nic.mac1609_4 	SNIRLostPackets 	2
scalar RSUExampleScenario.node[9].nic.mac1609_4 	RXTXLostPackets 	0
scalar RSUExampleScenario.node[9].nic.mac1609_4 	TotalLostPackets 	2
scalar RSUExampleScenario.node[9].nic.mac1609_4 	DroppedPacketsInMac 	0
scalar RSUExampleScenario.node[9].nic.mac1609_4 	TooLittleTime 	0
scalar RSUExampleScenario.node[9].nic.mac1609_4 	TimesIntoBackoff 	2
scalar RSUExampleScenario.node[9].nic.mac1609_4 	SlotsBackoff 	6
scalar RSUExampleScenario.node[9].nic.mac1609_4 	NumInternalContention 	0
scalar RSUExampleScenario.node[9].nic.mac1609_4 	totalBusyTime 	0.001921
scalar RSUExampleScenario.node[9].veinsmobility 	startTime 	17
scalar RSUExampleScenario.node[9].veinsmobility 	totalTime 	485
scalar RSUExampleScenario.node[9].veinsmobility 	stopTime 	503
scalar RSUExampleScenario.node[9].veinsmobility 	minSpeed 	0
scalar RSUExampleScenario.node[9].veinsmobility 	maxSpeed 	27.761024252772
scalar RSUExampleScenario.node[9].veinsmobility 	totalDistance 	3394.4017094451
scalar RSUExampleScenario.node[9].veinsmobility 	totalCO2Emission 	1084.7406963959
scalar RSUExampleScenario.node[11].nic.phy80211p 	busyTime 	4.1396303901437e-06
scalar RSUExampleScenario.node[11].nic.mac1609_4 	ReceivedUnicastPackets 	0
scalar RSUExampleScenario.node[11].nic.mac1609_4 	ReceivedBroadcasts 	17
scalar RSUExampleScenario.node[11].nic.mac1609_4 	SentPackets 	1
scalar RSUExampleScenario.node[11].nic.mac1609_4 	SNIRLostPackets 	4
scalar RSUExampleScenario.node[11].nic.mac1609_4 	RXTXLostPackets 	0
scalar RSUExampleScenario.node[11].nic.mac1609_4 	TotalLostPackets 	4
scalar RSUExampleScenario.node[11].nic.mac1609_4 	DroppedPacketsInMac 	0
scalar RSUExampleScenario.node[11].nic.mac1609_4 	TooLittleTime 	0
scalar RSUExampleScenario.node[11].nic.mac1609_4 	TimesIntoBackoff 	2
scalar RSUExampleScenario.node[11].nic.mac1609_4 	SlotsBackoff 	4
scalar RSUExampleScenario.node[11].nic.mac1609_4 	NumInternalContention 	0
scalar RSUExampleScenario.node[11].nic.mac1609_4 	totalBusyTime 	0.001921
scalar RSUExampleScenario.node[11].veinsmobility 	startTime 	20
scalar RSUExampleScenario.node[11].veinsmobility 	totalTime 	486
scalar RSUExampleScenario.node[11].veinsmobility 	stopTime 	507
scalar RSUExampleScenario.node[11].veinsmobility 	minSpeed 	0
scalar RSUExampleScenario.node[11].veinsmobility 	maxSpeed 	27.760161693981
scalar RSUExampleScenario.node[11].veinsmobility 	totalDistance 	3400.4770452777
scalar RSUExampleScenario.node[11].veinsmobility 	totalCO2Emission 	1104.7789458336
scalar RSUExampleScenario.node[15].nic.phy80211p 	busyTime 	5.7879417879418e-06
scalar RSUExampleScenario.node[15].nic.mac1609_4 	ReceivedUnicastPackets 	0
scalar RSUExampleScenario.node[15].nic.mac1609_4 	ReceivedBroadcasts 	19
scalar RSUExampleScenario.node[15].nic.mac1609_4 	SentPackets 	1
scalar RSUExampleScenario.node[15].nic.mac1609_4 	SNIRLostPackets 	10
scalar RSUExampleScenario.node[15].nic.mac1609_4 	RXTXLostPackets 	0
scalar RSUExampleScenario.node[15].nic.mac1609_4 	TotalLostPackets 	10
scalar RSUExampleScenario.node[15].nic.mac1609_4 	DroppedPacketsInMac 	0
scalar RSUExampleScenario.node[15].nic.mac1609_4 	TooLittleTime 	0
scalar RSUExampleScenario.node[15].nic.mac1609_4 	TimesIntoBackoff 	2
scalar RSUExampleScenario.node[15].nic.mac1609_4 	SlotsBackoff 	5
scalar RSUExampleScenario.node[15].nic.mac1609_4 	NumInternalContention 	0
scalar RSUExampleScenario.node[15].nic.mac1609_4 	totalBusyTime 	0.002401
scalar RSUExampleScenario.node[15].veinsmobility 	startTime 	28
scalar RSUExampleScenario.node[15].veinsmobility 	totalTime 	480
scalar RSUExampleScenario.node[15].veinsmobility 	stopTime 	509
scalar RSUExampleScenario.node[15].veinsmobility 	minSpeed 	0
scalar RSUExampleScenario.node[15].veinsmobility 	maxSpeed 	27.74906136293
scalar RSUExampleScenario.node[15].veinsmobility 	totalDistance 	3392.7855929541
scalar RSUExampleScenario.node[15].veinsmobility 	totalCO2Emission 	1181.2574053252
scalar RSUExampleScenario.node[8].nic.phy80211p 	busyTime 	3.8019801980198e-06
scalar RSUExampleScenario.node[8].nic.mac1609_4 	ReceivedUnicastPackets 	0
scalar RSUExampleScenario.node[8].nic.mac1609_4 	ReceivedBroadcasts 	18
scalar RSUExampleScenario.node[8].nic.mac1609_4 	SentPackets 	1
scalar RSUExampleScenario.node[8].nic.mac1609_4 	SNIRLostPackets 	2
scalar RSUExampleScenario.node[8].nic.mac1609_4 	RXTXLostPackets 	0
scalar RSUExampleScenario.node[8].nic.mac1609_4 	TotalLostPackets 	2
scalar RSUExampleScenario.node[8].nic.mac1609_4 	DroppedPacketsInMac 	0
scalar RSUExampleScenario.node[8].nic.mac1609_4 	TooLittleTime 	0
scalar RSUExampleScenario.node[8].nic.mac1609_4 	TimesIntoBackoff 	2
scalar RSUExampleScenario.node[8].nic.mac1609_4 	SlotsBackoff 	8
scalar RSUExampleScenario.node[8].nic.mac1609_4 	NumInternalContention 	0
scalar RSUExampleScenario.node[8].nic.mac1609_4 	totalBusyTime 	0.001921
scalar RSUExampleScenario.node[8].veinsmobility 	startTime 	16
scalar RSUExampleScenario.node[8].veinsmobility 	totalTime 	504
scalar RSUExampleScenario.node[8].veinsmobility 	stopTime 	521
scalar RSUExampleScenario.node[8].veinsmobility 	minSpeed 	0
scalar RSUExampleScenario.node[8].veinsmobility 	maxSpeed 	27.775954839187
scalar RSUExampleScenario.node[8].veinsmobility 	totalDistance 	3402.2758047653
scalar RSUExampleScenario.node[8].veinsmobility 	totalCO2Emission 	1101.9347687383
scalar RSUExampleScenario.node[12].nic.phy80211p 	busyTime 	4.5714285714286e-06
scalar RSUExampleScenario.node[12].nic.mac1609_4 	ReceivedUnicastPackets 	0
scalar RSUExampleScenario.node[12].nic.mac1609_4 	ReceivedBroadcasts 	19
scalar RSUExampleScenario.node[12].nic.mac1609_4 	SentPackets 	1
scalar RSUExampleScenario.node[12].nic.mac1609_4 	SNIRLostPackets 	6
scalar RSUExampleScenario.node[12].nic.mac1609_4 	RXTXLostPackets 	1
scalar RSUExampleScenario.node[12].nic.mac1609_4 	TotalLostPackets 	7
scalar RSUExampleScenario.node[12].nic.mac1609_4 	DroppedPacketsInMac 	0
scalar RSUExampleScenario.node[12].nic.mac1609_4 	TooLittleTime 	0
scalar RSUExampleScenario.node[12].nic.mac1609_4 	TimesIntoBackoff 	1
scalar RSUExampleScenario.node[12].nic.mac1609_4 	SlotsBackoff 	6
scalar RSUExampleScenario.node[12].nic.mac1609_4 	NumInternalContention 	0
scalar RSUExampleScenario.node[12].nic.mac1609_4 	totalBusyTime 	0.002209
scalar RSUExampleScenario.node[12].veinsmobility 	startTime 	23
scalar RSUExampleScenario.node[12].veinsmobility 	totalTime 	524
scalar RSUExampleScenario.node[12].veinsmobility 	stopTime 	548
scalar RSUExampleScenario.node[12].veinsmobility 	minSpeed 	0
scalar RSUExampleScenario.node[12].veinsmobility 	maxSpeed 	27.770714916472
scalar RSUExampleScenario.node[12].veinsmobility 	totalDistance 	3401.7568993668
scalar RSUExampleScenario.node[12].veinsmobility 	totalCO2Emission 	1028.4436777064
scalar RSUExampleScenario.node[10].nic.phy80211p 	busyTime 	3.7966101694915e-06
scalar RSUExampleScenario.node[10].nic.mac1609_4 	ReceivedUnicastPackets 	0
scalar RSUExampleScenario.node[10].nic.mac1609_4 	ReceivedBroadcasts 	17
scalar RSUExampleScenario.node[10].nic.mac1609_4 	SentPackets 	1
scalar RSUExampleScenario.node[10].nic.mac1609_4 	SNIRLostPackets 	4
scalar RSUExampleScenario.node[10].nic.mac1609_4 	RXTXLostPackets 	0
scalar RSUExampleScenario.node[10].nic.mac1609_4 	TotalLostPackets 	4
scalar RSUExampleScenario.node[10].nic.mac1609_4 	DroppedPacketsInMac 	0
scalar RSUExampleScenario.node[10].nic.mac1609_4 	TooLittleTime 	0
scalar RSUExampleScenario.node[10].nic.mac1609_4 	TimesIntoBackoff 	2
scalar RSUExampleScenario.node[10].nic.mac1609_4 	SlotsBackoff 	2
scalar RSUExampleScenario.node[10].nic.mac1609_4 	NumInternalContention 	0
scalar RSUExampleScenario.node[10].nic.mac1609_4 	totalBusyTime 	0.001921
scalar RSUExampleScenario.node[10].veinsmobility 	startTime 	19
scalar RSUExampleScenario.node[10].veinsmobility 	totalTime 	530
scalar RSUExampleScenario.node[10].veinsmobility 	stopTime 	550
scalar RSUExampleScenario.node[10].veinsmobility 	minSpeed 	0
scalar RSUExampleScenario.node[10].veinsmobility 	maxSpeed 	27.767910417309
scalar RSUExampleScenario.node[10].veinsmobility 	totalDistance 	3409.3424253861
scalar RSUExampleScenario.node[10].veinsmobility 	totalCO2Emission 	1142.6386289395
scalar RSUExampleScenario.node[17].nic.phy80211p 	busyTime 	5.7120921305182e-06
scalar RSUExampleScenario.node[17].nic.mac1609_4 	ReceivedUnicastPackets 	0
scalar RSUExampleScenario.node[17].nic.mac1609_4 	ReceivedBroadcasts 	18
scalar RSUExampleScenario.node[17].nic.mac1609_4 	SentPackets 	1
scalar RSUExampleScenario.node[17].nic.mac1609_4 	SNIRLostPackets 	13
scalar RSUExampleScenario.node[17].nic.mac1609_4 	RXTXLostPackets 	0
scalar RSUExampleScenario.node[17].nic.mac1609_4 	TotalLostPackets 	13
scalar RSUExampleScenario.node[17].nic.mac1609_4 	DroppedPacketsInMac 	0
scalar RSUExampleScenario.node[17].nic.mac1609_4 	TooLittleTime 	0
scalar RSUExampleScenario.node[17].nic.mac1609_4 	TimesIntoBackoff 	2
scalar RSUExampleScenario.node[17].nic.mac1609_4 	SlotsBackoff 	7
scalar RSUExampleScenario.node[17].nic.mac1609_4 	NumInternalContention 	0
scalar RSUExampleScenario.node[17].nic.mac1609_4 	totalBusyTime 	0.002497
scalar RSUExampleScenario.node[17].veinsmobility 	startTime 	31
scalar RSUExampleScenario.node[17].veinsmobility 	totalTime 	520
scalar RSUExampleScenario.node[17].veinsmobility 	stopTime 	552
scalar RSUExampleScenario.node[17].veinsmobility 	minSpeed 	0
scalar RSUExampleScenario.node[17].veinsmobility 	maxSpeed 	27.75224873418
scalar RSUExampleScenario.node[17].veinsmobility 	totalDistance 	3398.0208056976
scalar RSUExampleScenario.node[17].veinsmobility 	totalCO2Emission 	1170.8748991504
scalar RSUExampleScenario.node[14].nic.phy80211p 	busyTime 	5.0621468926554e-06
scalar RSUExampleScenario.node[14].nic.mac1609_4 	ReceivedUnicastPackets 	0
scalar RSUExampleScenario.node[14].nic.mac1609_4 	ReceivedBroadcasts 	20
scalar RSUExampleScenario.node[14].nic.mac1609_4 	SentPackets 	1
scalar RSUExampleScenario.node[14].nic.mac1609_4 	SNIRLostPackets 	8
scalar RSUExampleScenario.node[14].nic.mac1609_4 	RXTXLostPackets 	0
scalar RSUExampleScenario.node[14].nic.mac1609_4 	TotalLostPackets 	8
scalar RSUExampleScenario.node[14].nic.mac1609_4 	DroppedPacketsInMac 	0
scalar RSUExampleScenario.node[14].nic.mac1609_4 	TooLittleTime 	0
scalar RSUExampleScenario.node[14].nic.mac1609_4 	TimesIntoBackoff 	2
scalar RSUExampleScenario.node[14].nic.mac1609_4 	SlotsBackoff 	10
scalar RSUExampleScenario.node[14].nic.mac1609_4 	NumInternalContention 	0
scalar RSUExampleScenario.node[14].nic.mac1609_4 	totalBusyTime 	0.002401
scalar RSUExampleScenario.node[14].veinsmobility 	startTime 	27
scalar RSUExampleScenario.node[14].veinsmobility 	totalTime 	530
scalar RSUExampleScenario.node[14].veinsmobility 	stopTime 	558
scalar RSUExampleScenario.node[14].veinsmobility 	minSpeed 	0
scalar RSUExampleScenario.node[14].veinsmobility 	maxSpeed 	27.778162402529
scalar RSUExampleScenario.node[14].veinsmobility 	totalDistance 	3403.4695159581
scalar RSUExampleScenario.node[14].veinsmobility 	totalCO2Emission 	1102.9107351843
scalar RSUExampleScenario.node[16].nic.phy80211p 	busyTime 	5.4705882352941e-06
scalar RSUExampleScenario.node[16].nic.mac1609_4 	ReceivedUnicastPackets 	0
scalar RSUExampleScenario.node[16].nic.mac1609_4 	ReceivedBroadcasts 	19
scalar RSUExampleScenario.node[16].nic.mac1609_4 	SentPackets 	1
scalar RSUExampleScenario.node[16].nic.mac1609_4 	SNIRLostPackets 	12
scalar RSUExampleScenario.node[16].nic.mac1609_4 	RXTXLostPackets 	0
scalar RSUExampleScenario.node[16].nic.mac1609_4 	TotalLostPackets 	12
scalar RSUExampleScenario.node[16].nic.mac1609_4 	DroppedPacketsInMac 	0
scalar RSUExampleScenario.node[16].nic.mac1609_4 	TooLittleTime 	0
scalar RSUExampleScenario.node[16].nic.mac1609_4 	TimesIntoBackoff 	2
scalar RSUExampleScenario.node[16].nic.mac1609_4 	SlotsBackoff 	12
scalar RSUExampleScenario.node[16].nic.mac1609_4 	NumInternalContention 	0
scalar RSUExampleScenario.node[16].nic.mac1609_4 	totalBusyTime 	0.002497
scalar RSUExampleScenario.node[16].veinsmobility 	startTime 	30
scalar RSUExampleScenario.node[16].veinsmobility 	totalTime 	543
scalar RSUExampleScenario.node[16].veinsmobility 	stopTime 	574
scalar RSUExampleScenario.node[16].veinsmobility 	minSpeed 	0
scalar RSUExampleScenario.node[16].veinsmobility 	maxSpeed 	27.755509291468
scalar RSUExampleScenario.node[16].veinsmobility 	totalDistance 	3403.9060430627
scalar RSUExampleScenario.node[16].veinsmobility 	totalCO2Emission 	1284.3319684701
scalar RSUExampleScenario.node[18].nic.phy80211p 	busyTime 	5.6574585635359e-06
scalar RSUExampleScenario.node[18].nic.mac1609_4 	ReceivedUnicastPackets 	0
scalar RSUExampleScenario.node[18].nic.mac1609_4 	ReceivedBroadcasts 	17
scalar RSUExampleScenario.node[18].nic.mac1609_4 	SentPackets 	1
scalar RSUExampleScenario.node[18].nic.mac1609_4 	SNIRLostPackets 	15
scalar RSUExampleScenario.node[18].nic.mac1609_4 	RXTXLostPackets 	0
scalar RSUExampleScenario.node[18].nic.mac1609_4 	TotalLostPackets 	15
scalar RSUExampleScenario.node[18].nic.mac1609_4 	DroppedPacketsInMac 	0
scalar RSUExampleScenario.node[18].nic.mac1609_4 	TooLittleTime 	0
scalar RSUExampleScenario.node[18].nic.mac1609_4 	TimesIntoBackoff 	1
scalar RSUExampleScenario.node[18].nic.mac1609_4 	SlotsBackoff 	6
scalar RSUExampleScenario.node[18].nic.mac1609_4 	NumInternalContention 	0
scalar RSUExampleScenario.node[18].nic.mac1609_4 	totalBusyTime 	0.002497
scalar RSUExampleScenario.node[18].veinsmobility 	startTime 	33
scalar RSUExampleScenario.node[18].veinsmobility 	totalTime 	542
scalar RSUExampleScenario.node[18].veinsmobility 	stopTime 	576
scalar RSUExampleScenario.node[18].veinsmobility 	minSpeed 	0
scalar RSUExampleScenario.node[18].veinsmobility 	maxSpeed 	27.769027260998
scalar RSUExampleScenario.node[18].veinsmobility 	totalDistance 	3389.7739191285
scalar RSUExampleScenario.node[18].veinsmobility 	totalCO2Emission 	1312.1843384378
scalar RSUExampleScenario.node[13].nic.phy80211p 	busyTime 	4.6451612903226e-06
scalar RSUExampleScenario.node[13].nic.mac1609_4 	ReceivedUnicastPackets 	0
scalar RSUExampleScenario.node[13].nic.mac1609_4 	ReceivedBroadcasts 	19
scalar RSUExampleScenario.node[13].nic.mac1609_4 	SentPackets 	1
scalar RSUExampleScenario.node[13].nic.mac1609_4 	SNIRLostPackets 	8
scalar RSUExampleScenario.node[13].nic.mac1609_4 	RXTXLostPackets 	0
scalar RSUExampleScenario.node[13].nic.mac1609_4 	TotalLostPackets 	8
scalar RSUExampleScenario.node[13].nic.mac1609_4 	DroppedPacketsInMac 	0
scalar RSUExampleScenario.node[13].nic.mac1609_4 	TooLittleTime 	0
scalar RSUExampleScenario.node[13].nic.mac1609_4 	TimesIntoBackoff 	1
scalar RSUExampleScenario.node[13].nic.mac1609_4 	SlotsBackoff 	0
scalar RSUExampleScenario.node[13].nic.mac1609_4 	NumInternalContention 	0
scalar RSUExampleScenario.node[13].nic.mac1609_4 	totalBusyTime 	0.002305008924
scalar RSUExampleScenario.node[13].veinsmobility 	startTime 	25
scalar RSUExampleScenario.node[13].veinsmobility 	totalTime 	557
scalar RSUExampleScenario.node[13].veinsmobility 	stopTime 	583
scalar RSUExampleScenario.node[13].veinsmobility 	minSpeed 	0
scalar RSUExampleScenario.node[13].veinsmobility 	maxSpeed 	27.779198604431
scalar RSUExampleScenario.node[13].veinsmobility 	totalDistance 	3400.6013890231
scalar RSUExampleScenario.node[13].veinsmobility 	totalCO2Emission 	1196.9573982082
scalar RSUExampleScenario.node[34].nic.phy80211p 	busyTime 	7.4404536862004e-06
scalar RSUExampleScenario.node[34].nic.mac1609_4 	ReceivedUnicastPackets 	0
scalar RSUExampleScenario.node[34].nic.mac1609_4 	ReceivedBroadcasts 	31
scalar RSUExampleScenario.node[34].nic.mac1609_4 	SentPackets 	1
scalar RSUExampleScenario.node[34].nic.mac1609_4 	SNIRLostPackets 	10
scalar RSUExampleScenario.node[34].nic.mac1609_4 	RXTXLostPackets 	0
scalar RSUExampleScenario.node[34].nic.mac1609_4 	TotalLostPackets 	10
scalar RSUExampleScenario.node[34].nic.mac1609_4 	DroppedPacketsInMac 	0
scalar RSUExampleScenario.node[34].nic.mac1609_4 	TooLittleTime 	0
scalar RSUExampleScenario.node[34].nic.mac1609_4 	TimesIntoBackoff 	2
scalar RSUExampleScenario.node[34].nic.mac1609_4 	SlotsBackoff 	9
scalar RSUExampleScenario.node[34].nic.mac1609_4 	NumInternalContention 	0
scalar RSUExampleScenario.node[34].nic.mac1609_4 	totalBusyTime 	0.003553
scalar RSUExampleScenario.node[34].veinsmobility 	startTime 	60
scalar RSUExampleScenario.node[34].veinsmobility 	totalTime 	528
scalar RSUExampleScenario.node[34].veinsmobility 	stopTime 	589
scalar RSUExampleScenario.node[34].veinsmobility 	minSpeed 	0
scalar RSUExampleScenario.node[34].veinsmobility 	maxSpeed 	27.763193936618
scalar RSUExampleScenario.node[34].veinsmobility 	totalDistance 	3397.8320733262
scalar RSUExampleScenario.node[34].veinsmobility 	totalCO2Emission 	1328.3334849251
scalar RSUExampleScenario.node[19].nic.phy80211p 	busyTime 	5.3333333333333e-06
scalar RSUExampleScenario.node[19].nic.mac1609_4 	ReceivedUnicastPackets 	0
scalar RSUExampleScenario.node[19].nic.mac1609_4 	ReceivedBroadcasts 	19
scalar RSUExampleScenario.node[19].nic.mac1609_4 	SentPackets 	1
scalar RSUExampleScenario.node[19].nic.mac1609_4 	SNIRLostPackets 	12
scalar RSUExampleScenario.node[19].nic.mac1609_4 	RXTXLostPackets 	1
scalar RSUExampleScenario.node[19].nic.mac1609_4 	TotalLostPackets 	13
scalar RSUExampleScenario.node[19].nic.mac1609_4 	DroppedPacketsInMac 	0
scalar RSUExampleScenario.node[19].nic.mac1609_4 	TooLittleTime 	0
scalar RSUExampleScenario.node[19].nic.mac1609_4 	TimesIntoBackoff 	1
scalar RSUExampleScenario.node[19].nic.mac1609_4 	SlotsBackoff 	7
scalar RSUExampleScenario.node[19].nic.mac1609_4 	NumInternalContention 	0
scalar RSUExampleScenario.node[19].nic.mac1609_4 	totalBusyTime 	0.002593
scalar RSUExampleScenario.node[19].veinsmobility 	startTime 	34
scalar RSUExampleScenario.node[19].veinsmobility 	totalTime 	557
scalar RSUExampleScenario.node[19].veinsmobility 	stopTime 	592
scalar RSUExampleScenario.node[19].veinsmobility 	minSpeed 	0
scalar RSUExampleScenario.node[19].veinsmobility 	maxSpeed 	27.774438398425
scalar RSUExampleScenario.node[19].veinsmobility 	totalDistance 	3404.8284642676
scalar RSUExampleScenario.node[19].veinsmobility 	totalCO2Emission 	1276.1506490463
scalar RSUExampleScenario.node[64].nic.phy80211p 	busyTime 	5.3975903614458e-06
scalar RSUExampleScenario.node[64].nic.mac1609_4 	ReceivedUnicastPackets 	0
scalar RSUExampleScenario.node[64].nic.mac1609_4 	ReceivedBroadcasts 	17
scalar RSUExampleScenario.node[64].nic.mac1609_4 	SentPackets 	1
scalar RSUExampleScenario.node[64].nic.mac1609_4 	SNIRLostPackets 	11
scalar RSUExampleScenario.node[64].nic.mac1609_4 	RXTXLostPackets 	1
scalar RSUExampleScenario.node[64].nic.mac1609_4 	TotalLostPackets 	12
scalar RSUExampleScenario.node[64].nic.mac1609_4 	DroppedPacketsInMac 	0
scalar RSUExampleScenario.node[64].nic.mac1609_4 	TooLittleTime 	0
scalar RSUExampleScenario.node[64].nic.mac1609_4 	TimesIntoBackoff 	1
scalar RSUExampleScenario.node[64].nic.mac1609_4 	SlotsBackoff 	4
scalar RSUExampleScenario.node[64].nic.mac1609_4 	NumInternalContention 	0
scalar RSUExampleScenario.node[64].nic.mac1609_4 	totalBusyTime 	0.002209
scalar RSUExampleScenario.node[64].veinsmobility 	startTime 	123
scalar RSUExampleScenario.node[64].veinsmobility 	totalTime 	497
scalar RSUExampleScenario.node[64].veinsmobility 	stopTime 	621
scalar RSUExampleScenario.node[64].veinsmobility 	minSpeed 	0
scalar RSUExampleScenario.node[64].veinsmobility 	maxSpeed 	27.772873163689
scalar RSUExampleScenario.node[64].veinsmobility 	totalDistance 	3393.7539439364
scalar RSUExampleScenario.node[64].veinsmobility 	totalCO2Emission 	1261.9926957665
scalar RSUExampleScenario.node[59].nic.phy80211p 	busyTime 	4.1169590643275e-06
scalar RSUExampleScenario.node[59].nic.mac1609_4 	ReceivedUnicastPackets 	0
scalar RSUExampleScenario.node[59].nic.mac1609_4 	ReceivedBroadcasts 	17
scalar RSUExampleScenario.node[59].nic.mac1609_4 	SentPackets 	1
scalar RSUExampleScenario.node[59].nic.mac1609_4 	SNIRLostPackets 	5
scalar RSUExampleScenario.node[59].nic.mac1609_4 	RXTXLostPackets 	0
scalar RSUExampleScenario.node[59].nic.mac1609_4 	TotalLostPackets 	5
scalar RSUExampleScenario.node[59].nic.mac1609_4 	DroppedPacketsInMac 	0
scalar RSUExampleScenario.node[59].nic.mac1609_4 	TooLittleTime 	0
scalar RSUExampleScenario.node[59].nic.mac1609_4 	TimesIntoBackoff 	1
scalar RSUExampleScenario.node[59].nic.mac1609_4 	SlotsBackoff 	7
scalar RSUExampleScenario.node[59].nic.mac1609_4 	NumInternalContention 	0
scalar RSUExampleScenario.node[59].nic.mac1609_4 	totalBusyTime 	0.001921
scalar RSUExampleScenario.node[59].veinsmobility 	startTime 	112
scalar RSUExampleScenario.node[59].veinsmobility 	totalTime 	512
scalar RSUExampleScenario.node[59].veinsmobility 	stopTime 	625
scalar RSUExampleScenario.node[59].veinsmobility 	minSpeed 	0
scalar RSUExampleScenario.node[59].veinsmobility 	maxSpeed 	27.763582424615
scalar RSUExampleScenario.node[59].veinsmobility 	totalDistance 	3408.7417051303
scalar RSUExampleScenario.node[59].veinsmobility 	totalCO2Emission 	1301.4661943005
scalar RSUExampleScenario.node[62].nic.phy80211p 	busyTime 	4.3125e-06
scalar RSUExampleScenario.node[62].nic.mac1609_4 	ReceivedUnicastPackets 	0
scalar RSUExampleScenario.node[62].nic.mac1609_4 	ReceivedBroadcasts 	18
scalar RSUExampleScenario.node[62].nic.mac1609_4 	SentPackets 	1
scalar RSUExampleScenario.node[62].nic.mac1609_4 	SNIRLostPackets 	5
scalar RSUExampleScenario.node[62].nic.mac1609_4 	RXTXLostPackets 	0
scalar RSUExampleScenario.node[62].nic.mac1609_4 	TotalLostPackets 	5
scalar RSUExampleScenario.node[62].nic.mac1609_4 	DroppedPacketsInMac 	0
scalar RSUExampleScenario.node[62].nic.mac1609_4 	TooLittleTime 	0
scalar RSUExampleScenario.node[62].nic.mac1609_4 	TimesIntoBackoff 	1
scalar RSUExampleScenario.node[62].nic.mac1609_4 	SlotsBackoff 	6
scalar RSUExampleScenario.node[62].nic.mac1609_4 	NumInternalContention 	0
scalar RSUExampleScenario.node[62].nic.mac1609_4 	totalBusyTime 	0.002017
scalar RSUExampleScenario.node[62].veinsmobility 	startTime 	119
scalar RSUExampleScenario.node[62].veinsmobility 	totalTime 	511
scalar RSUExampleScenario.node[62].veinsmobility 	stopTime 	631
scalar RSUExampleScenario.node[62].veinsmobility 	minSpeed 	0
scalar RSUExampleScenario.node[62].veinsmobility 	maxSpeed 	27.759831233444
scalar RSUExampleScenario.node[62].veinsmobility 	totalDistance 	3397.0729028289
scalar RSUExampleScenario.node[62].veinsmobility 	totalCO2Emission 	1269.1585156995
scalar RSUExampleScenario.node[54].nic.phy80211p 	busyTime 	3.3777777777778e-06
scalar RSUExampleScenario.node[54].nic.mac1609_4 	ReceivedUnicastPackets 	0
scalar RSUExampleScenario.node[54].nic.mac1609_4 	ReceivedBroadcasts 	15
scalar RSUExampleScenario.node[54].nic.mac1609_4 	SentPackets 	1
scalar RSUExampleScenario.node[54].nic.mac1609_4 	SNIRLostPackets 	4
scalar RSUExampleScenario.node[54].nic.mac1609_4 	RXTXLostPackets 	0
scalar RSUExampleScenario.node[54].nic.mac1609_4 	TotalLostPackets 	4
scalar RSUExampleScenario.node[54].nic.mac1609_4 	DroppedPacketsInMac 	0
scalar RSUExampleScenario.node[54].nic.mac1609_4 	TooLittleTime 	0
scalar RSUExampleScenario.node[54].nic.mac1609_4 	TimesIntoBackoff 	1
scalar RSUExampleScenario.node[54].nic.mac1609_4 	SlotsBackoff 	3
scalar RSUExampleScenario.node[54].nic.mac1609_4 	NumInternalContention 	0
scalar RSUExampleScenario.node[54].nic.mac1609_4 	totalBusyTime 	0.001729
scalar RSUExampleScenario.node[54].veinsmobility 	startTime 	102
scalar RSUExampleScenario.node[54].veinsmobility 	totalTime 	539
scalar RSUExampleScenario.node[54].veinsmobility 	stopTime 	642
scalar RSUExampleScenario.node[54].veinsmobility 	minSpeed 	0
scalar RSUExampleScenario.node[54].veinsmobility 	maxSpeed 	27.7463695639
scalar RSUExampleScenario.node[54].veinsmobility 	totalDistance 	3402.5764967682
scalar RSUExampleScenario.node[54].veinsmobility 	totalCO2Emission 	1363.6994078943
scalar RSUExampleScenario.node[55].nic.phy80211p 	busyTime 	3.3715341959335e-06
scalar RSUExampleScenario.node[55].nic.mac1609_4 	ReceivedUnicastPackets 	0
scalar RSUExampleScenario.node[55].nic.mac1609_4 	ReceivedBroadcasts 	15
scalar RSUExampleScenario.node[55].nic.mac1609_4 	SentPackets 	1
scalar RSUExampleScenario.node[55].nic.mac1609_4 	SNIRLostPackets 	4
scalar RSUExampleScenario.node[55].nic.mac1609_4 	RXTXLostPackets 	0
scalar RSUExampleScenario.node[55].nic.mac1609_4 	TotalLostPackets 	4
scalar RSUExampleScenario.node[55].nic.mac1609_4 	DroppedPacketsInMac 	0
scalar RSUExampleScenario.node[55].nic.mac1609_4 	TooLittleTime 	0
scalar RSUExampleScenario.node[55].nic.mac1609_4 	TimesIntoBackoff 	2
scalar RSUExampleScenario.node[55].nic.mac1609_4 	SlotsBackoff 	10
scalar RSUExampleScenario.node[55].nic.mac1609_4 	NumInternalContention 	0
scalar RSUExampleScenario.node[55].nic.mac1609_4 	totalBusyTime 	0.001729
scalar RSUExampleScenario.node[55].veinsmobility 	startTime 	104
scalar RSUExampleScenario.node[55].veinsmobility 	totalTime 	540
scalar RSUExampleScenario.node[55].veinsmobility 	stopTime 	645
scalar RSUExampleScenario.node[55].veinsmobility 	minSpeed 	0
scalar RSUExampleScenario.node[55].veinsmobility 	maxSpeed 	27.778226524908
scalar RSUExampleScenario.node[55].veinsmobility 	totalDistance 	3403.6643530707
scalar RSUExampleScenario.node[55].veinsmobility 	totalCO2Emission 	1350.4838750982
scalar RSUExampleScenario.node[30].nic.phy80211p 	busyTime 	5.979797979798e-06
scalar RSUExampleScenario.node[30].nic.mac1609_4 	ReceivedUnicastPackets 	0
scalar RSUExampleScenario.node[30].nic.mac1609_4 	ReceivedBroadcasts 	19
scalar RSUExampleScenario.node[30].nic.mac1609_4 	SentPackets 	1
scalar RSUExampleScenario.node[30].nic.mac1609_4 	SNIRLostPackets 	18
scalar RSUExampleScenario.node[30].nic.mac1609_4 	RXTXLostPackets 	0
scalar RSUExampleScenario.node[30].nic.mac1609_4 	TotalLostPackets 	18
scalar RSUExampleScenario.node[30].nic.mac1609_4 	DroppedPacketsInMac 	0
scalar RSUExampleScenario.node[30].nic.mac1609_4 	TooLittleTime 	0
scalar RSUExampleScenario.node[30].nic.mac1609_4 	TimesIntoBackoff 	2
scalar RSUExampleScenario.node[30].nic.mac1609_4 	SlotsBackoff 	9
scalar RSUExampleScenario.node[30].nic.mac1609_4 	NumInternalContention 	0
scalar RSUExampleScenario.node[30].nic.mac1609_4 	totalBusyTime 	0.002857006885
scalar RSUExampleScenario.node[30].veinsmobility 	startTime 	53
scalar RSUExampleScenario.node[30].veinsmobility 	totalTime 	593
scalar RSUExampleScenario.node[30].veinsmobility 	stopTime 	647
scalar RSUExampleScenario.node[30].veinsmobility 	minSpeed 	0
scalar RSUExampleScenario.node[30].veinsmobility 	maxSpeed 	16.664403645499
scalar RSUExampleScenario.node[30].veinsmobility 	totalDistance 	3346.0318594723
scalar RSUExampleScenario.node[30].veinsmobility 	totalCO2Emission 	1158.5700569068
scalar RSUExampleScenario.node[40].nic.phy80211p 	busyTime 	7.8197573656846e-06
scalar RSUExampleScenario.node[40].nic.mac1609_4 	ReceivedUnicastPackets 	0
scalar RSUExampleScenario.node[40].nic.mac1609_4 	ReceivedBroadcasts 	38
scalar RSUExampleScenario.node[40].nic.mac1609_4 	SentPackets 	1
scalar RSUExampleScenario.node[40].nic.mac1609_4 	SNIRLostPackets 	9
scalar RSUExampleScenario.node[40].nic.mac1609_4 	RXTXLostPackets 	0
scalar RSUExampleScenario.node[40].nic.mac1609_4 	TotalLostPackets 	9
scalar RSUExampleScenario.node[40].nic.mac1609_4 	DroppedPacketsInMac 	0
scalar RSUExampleScenario.node[40].nic.mac1609_4 	TooLittleTime 	0
scalar RSUExampleScenario.node[40].nic.mac1609_4 	TimesIntoBackoff 	2
scalar RSUExampleScenario.node[40].nic.mac1609_4 	SlotsBackoff 	9
scalar RSUExampleScenario.node[40].nic.mac1609_4 	NumInternalContention 	0
scalar RSUExampleScenario.node[40].nic.mac1609_4 	totalBusyTime 	0.004129
scalar RSUExampleScenario.node[40].veinsmobility 	startTime 	72
scalar RSUExampleScenario.node[40].veinsmobility 	totalTime 	576
scalar RSUExampleScenario.node[40].veinsmobility 	stopTime 	649
scalar RSUExampleScenario.node[40].veinsmobility 	minSpeed 	0
scalar RSUExampleScenario.node[40].veinsmobility 	maxSpeed 	27.761339273555
scalar RSUExampleScenario.node[40].veinsmobility 	totalDistance 	3397.5960073631
scalar RSUExampleScenario.node[40].veinsmobility 	totalCO2Emission 	1368.8854306725
scalar RSUExampleScenario.node[63].nic.phy80211p 	busyTime 	4.4117647058824e-06
scalar RSUExampleScenario.node[63].nic.mac1609_4 	ReceivedUnicastPackets 	0
scalar RSUExampleScenario.node[63].nic.mac1609_4 	ReceivedBroadcasts 	16
scalar RSUExampleScenario.node[63].nic.mac1609_4 	SentPackets 	1
scalar RSUExampleScenario.node[63].nic.mac1609_4 	SNIRLostPackets 	9
scalar RSUExampleScenario.node[63].nic.mac1609_4 	RXTXLostPackets 	1
scalar RSUExampleScenario.node[63].nic.mac1609_4 	TotalLostPackets 	10
scalar RSUExampleScenario.node[63].nic.mac1609_4 	DroppedPacketsInMac 	0
scalar RSUExampleScenario.node[63].nic.mac1609_4 	TooLittleTime 	0
scalar RSUExampleScenario.node[63].nic.mac1609_4 	TimesIntoBackoff 	1
scalar RSUExampleScenario.node[63].nic.mac1609_4 	SlotsBackoff 	2
scalar RSUExampleScenario.node[63].nic.mac1609_4 	NumInternalContention 	0
scalar RSUExampleScenario.node[63].nic.mac1609_4 	totalBusyTime 	0.002113
scalar RSUExampleScenario.node[63].veinsmobility 	startTime 	121
scalar RSUExampleScenario.node[63].veinsmobility 	totalTime 	543
scalar RSUExampleScenario.node[63].veinsmobility 	stopTime 	665
scalar RSUExampleScenario.node[63].veinsmobility 	minSpeed 	0
scalar RSUExampleScenario.node[63].veinsmobility 	maxSpeed 	27.756352659129
scalar RSUExampleScenario.node[63].veinsmobility 	totalDistance 	3404.8269764086
scalar RSUExampleScenario.node[63].veinsmobility 	totalCO2Emission 	1332.149484541
scalar RSUExampleScenario.node[60].nic.phy80211p 	busyTime 	3.8260869565217e-06
scalar RSUExampleScenario.node[60].nic.mac1609_4 	ReceivedUnicastPackets 	0
scalar RSUExampleScenario.node[60].nic.mac1609_4 	ReceivedBroadcasts 	17
scalar RSUExampleScenario.node[60].nic.mac1609_4 	SentPackets 	1
scalar RSUExampleScenario.node[60].nic.mac1609_4 	SNIRLostPackets 	5
scalar RSUExampleScenario.node[60].nic.mac1609_4 	RXTXLostPackets 	0
scalar RSUExampleScenario.node[60].nic.mac1609_4 	TotalLostPackets 	5
scalar RSUExampleScenario.node[60].nic.mac1609_4 	DroppedPacketsInMac 	0
scalar RSUExampleScenario.node[60].nic.mac1609_4 	TooLittleTime 	0
scalar RSUExampleScenario.node[60].nic.mac1609_4 	TimesIntoBackoff 	2
scalar RSUExampleScenario.node[60].nic.mac1609_4 	SlotsBackoff 	7
scalar RSUExampleScenario.node[60].nic.mac1609_4 	NumInternalContention 	0
scalar RSUExampleScenario.node[60].nic.mac1609_4 	totalBusyTime 	0.001921
scalar RSUExampleScenario.node[60].veinsmobility 	startTime 	115
scalar RSUExampleScenario.node[60].veinsmobility 	totalTime 	551
scalar RSUExampleScenario.node[60].veinsmobility 	stopTime 	667
scalar RSUExampleScenario.node[60].veinsmobility 	minSpeed 	0
scalar RSUExampleScenario.node[60].veinsmobility 	maxSpeed 	27.777705044504
scalar RSUExampleScenario.node[60].veinsmobility 	totalDistance 	3393.8179986665
scalar RSUExampleScenario.node[60].veinsmobility 	totalCO2Emission 	1361.924507395
scalar RSUExampleScenario.node[28].nic.phy80211p 	busyTime 	7.5748792270531e-06
scalar RSUExampleScenario.node[28].nic.mac1609_4 	ReceivedUnicastPackets 	0
scalar RSUExampleScenario.node[28].nic.mac1609_4 	ReceivedBroadcasts 	22
scalar RSUExampleScenario.node[28].nic.mac1609_4 	SentPackets 	1
scalar RSUExampleScenario.node[28].nic.mac1609_4 	SNIRLostPackets 	27
scalar RSUExampleScenario.node[28].nic.mac1609_4 	RXTXLostPackets 	0
scalar RSUExampleScenario.node[28].nic.mac1609_4 	TotalLostPackets 	27
scalar RSUExampleScenario.node[28].nic.mac1609_4 	DroppedPacketsInMac 	0
scalar RSUExampleScenario.node[28].nic.mac1609_4 	TooLittleTime 	0
scalar RSUExampleScenario.node[28].nic.mac1609_4 	TimesIntoBackoff 	2
scalar RSUExampleScenario.node[28].nic.mac1609_4 	SlotsBackoff 	10
scalar RSUExampleScenario.node[28].nic.mac1609_4 	NumInternalContention 	0
scalar RSUExampleScenario.node[28].nic.mac1609_4 	totalBusyTime 	0.003553
scalar RSUExampleScenario.node[28].veinsmobility 	startTime 	49
scalar RSUExampleScenario.node[28].veinsmobility 	totalTime 	620
scalar RSUExampleScenario.node[28].veinsmobility 	stopTime 	670
scalar RSUExampleScenario.node[28].veinsmobility 	minSpeed 	0
scalar RSUExampleScenario.node[28].veinsmobility 	maxSpeed 	27.751326762456
scalar RSUExampleScenario.node[28].veinsmobility 	totalDistance 	3408.9663221339
scalar RSUExampleScenario.node[28].veinsmobility 	totalCO2Emission 	1382.6686267989
scalar RSUExampleScenario.node[38].nic.phy80211p 	busyTime 	4.2913907284768e-06
scalar RSUExampleScenario.node[38].nic.mac1609_4 	ReceivedUnicastPackets 	0
scalar RSUExampleScenario.node[38].nic.mac1609_4 	ReceivedBroadcasts 	21
scalar RSUExampleScenario.node[38].nic.mac1609_4 	SentPackets 	1
scalar RSUExampleScenario.node[38].nic.mac1609_4 	SNIRLostPackets 	6
scalar RSUExampleScenario.node[38].nic.mac1609_4 	RXTXLostPackets 	0
scalar RSUExampleScenario.node[38].nic.mac1609_4 	TotalLostPackets 	6
scalar RSUExampleScenario.node[38].nic.mac1609_4 	DroppedPacketsInMac 	0
scalar RSUExampleScenario.node[38].nic.mac1609_4 	TooLittleTime 	0
scalar RSUExampleScenario.node[38].nic.mac1609_4 	TimesIntoBackoff 	1
scalar RSUExampleScenario.node[38].nic.mac1609_4 	SlotsBackoff 	1
scalar RSUExampleScenario.node[38].nic.mac1609_4 	NumInternalContention 	0
scalar RSUExampleScenario.node[38].nic.mac1609_4 	totalBusyTime 	0.002401
scalar RSUExampleScenario.node[38].veinsmobility 	startTime 	68
scalar RSUExampleScenario.node[38].veinsmobility 	totalTime 	603
scalar RSUExampleScenario.node[38].veinsmobility 	stopTime 	672
scalar RSUExampleScenario.node[38].veinsmobility 	minSpeed 	0
scalar RSUExampleScenario.node[38].veinsmobility 	maxSpeed 	16.661595018627
scalar RSUExampleScenario.node[38].veinsmobility 	totalDistance 	3250.0400131758
scalar RSUExampleScenario.node[38].veinsmobility 	totalCO2Emission 	1196.044743235
scalar RSUExampleScenario.node[56].nic.phy80211p 	busyTime 	3.5492957746479e-06
scalar RSUExampleScenario.node[56].nic.mac1609_4 	ReceivedUnicastPackets 	0
scalar RSUExampleScenario.node[56].nic.mac1609_4 	ReceivedBroadcasts 	16
scalar RSUExampleScenario.node[56].nic.mac1609_4 	SentPackets 	1
scalar RSUExampleScenario.node[56].nic.mac1609_4 	SNIRLostPackets 	5
scalar RSUExampleScenario.node[56].nic.mac1609_4 	RXTXLostPackets 	0
scalar RSUExampleScenario.node[56].nic.mac1609_4 	TotalLostPackets 	5
scalar RSUExampleScenario.node[56].nic.mac1609_4 	DroppedPacketsInMac 	0
scalar RSUExampleScenario.node[56].nic.mac1609_4 	TooLittleTime 	0
scalar RSUExampleScenario.node[56].nic.mac1609_4 	TimesIntoBackoff 	1
scalar RSUExampleScenario.node[56].nic.mac1609_4 	SlotsBackoff 	1
scalar RSUExampleScenario.node[56].nic.mac1609_4 	NumInternalContention 	0
scalar RSUExampleScenario.node[56].nic.mac1609_4 	totalBusyTime 	0.001825
scalar RSUExampleScenario.node[56].veinsmobility 	startTime 	106
scalar RSUExampleScenario.node[56].veinsmobility 	totalTime 	567
scalar RSUExampleScenario.node[56].veinsmobility 	stopTime 	674
scalar RSUExampleScenario.node[56].veinsmobility 	minSpeed 	0
scalar RSUExampleScenario.node[56].veinsmobility 	maxSpeed 	27.723084893459
scalar RSUExampleScenario.node[56].veinsmobility 	totalDistance 	3397.4446643309
scalar RSUExampleScenario.node[56].veinsmobility 	totalCO2Emission 	1378.9013483972
scalar RSUExampleScenario.node[31].nic.phy80211p 	busyTime 	5.7106109324759e-06
scalar RSUExampleScenario.node[31].nic.mac1609_4 	ReceivedUnicastPackets 	0
scalar RSUExampleScenario.node[31].nic.mac1609_4 	ReceivedBroadcasts 	19
scalar RSUExampleScenario.node[31].nic.mac1609_4 	SentPackets 	1
scalar RSUExampleScenario.node[31].nic.mac1609_4 	SNIRLostPackets 	18
scalar RSUExampleScenario.node[31].nic.mac1609_4 	RXTXLostPackets 	0
scalar RSUExampleScenario.node[31].nic.mac1609_4 	TotalLostPackets 	18
scalar RSUExampleScenario.node[31].nic.mac1609_4 	DroppedPacketsInMac 	0
scalar RSUExampleScenario.node[31].nic.mac1609_4 	TooLittleTime 	0
scalar RSUExampleScenario.node[31].nic.mac1609_4 	TimesIntoBackoff 	1
scalar RSUExampleScenario.node[31].nic.mac1609_4 	SlotsBackoff 	4
scalar RSUExampleScenario.node[31].nic.mac1609_4 	NumInternalContention 	0
scalar RSUExampleScenario.node[31].nic.mac1609_4 	totalBusyTime 	0.002857007967
scalar RSUExampleScenario.node[31].veinsmobility 	startTime 	55
scalar RSUExampleScenario.node[31].veinsmobility 	totalTime 	621
scalar RSUExampleScenario.node[31].veinsmobility 	stopTime 	677
scalar RSUExampleScenario.node[31].veinsmobility 	minSpeed 	0
scalar RSUExampleScenario.node[31].veinsmobility 	maxSpeed 	16.654151447816
scalar RSUExampleScenario.node[31].veinsmobility 	totalDistance 	3260.9763374564
scalar RSUExampleScenario.node[31].veinsmobility 	totalCO2Emission 	1235.2983639941
scalar RSUExampleScenario.node[32].nic.phy80211p 	busyTime 	5.3932584269663e-06
scalar RSUExampleScenario.node[32].nic.mac1609_4 	ReceivedUnicastPackets 	0
scalar RSUExampleScenario.node[32].nic.mac1609_4 	ReceivedBroadcasts 	20
scalar RSUExampleScenario.node[32].nic.mac1609_4 	SentPackets 	1
scalar RSUExampleScenario.node[32].nic.mac1609_4 	SNIRLostPackets 	15
scalar RSUExampleScenario.node[32].nic.mac1609_4 	RXTXLostPackets 	0
scalar RSUExampleScenario.node[32].nic.mac1609_4 	TotalLostPackets 	15
scalar RSUExampleScenario.node[32].nic.mac1609_4 	DroppedPacketsInMac 	0
scalar RSUExampleScenario.node[32].nic.mac1609_4 	TooLittleTime 	0
scalar RSUExampleScenario.node[32].nic.mac1609_4 	TimesIntoBackoff 	2
scalar RSUExampleScenario.node[32].nic.mac1609_4 	SlotsBackoff 	7
scalar RSUExampleScenario.node[32].nic.mac1609_4 	NumInternalContention 	0
scalar RSUExampleScenario.node[32].nic.mac1609_4 	totalBusyTime 	0.002894235009
scalar RSUExampleScenario.node[32].veinsmobility 	startTime 	56
scalar RSUExampleScenario.node[32].veinsmobility 	totalTime 	622
scalar RSUExampleScenario.node[32].veinsmobility 	stopTime 	679
scalar RSUExampleScenario.node[32].veinsmobility 	minSpeed 	0
scalar RSUExampleScenario.node[32].veinsmobility 	maxSpeed 	16.669504802572
scalar RSUExampleScenario.node[32].veinsmobility 	totalDistance 	3255.7816849106
scalar RSUExampleScenario.node[32].veinsmobility 	totalCO2Emission 	1144.070387496
scalar RSUExampleScenario.node[29].nic.phy80211p 	busyTime 	5.7904761904762e-06
scalar RSUExampleScenario.node[29].nic.mac1609_4 	ReceivedUnicastPackets 	0
scalar RSUExampleScenario.node[29].nic.mac1609_4 	ReceivedBroadcasts 	18
scalar RSUExampleScenario.node[29].nic.mac1609_4 	SentPackets 	1
scalar RSUExampleScenario.node[29].nic.mac1609_4 	SNIRLostPackets 	20
scalar RSUExampleScenario.node[29].nic.mac1609_4 	RXTXLostPackets 	0
scalar RSUExampleScenario.node[29].nic.mac1609_4 	TotalLostPackets 	20
scalar RSUExampleScenario.node[29].nic.mac1609_4 	DroppedPacketsInMac 	0
scalar RSUExampleScenario.node[29].nic.mac1609_4 	TooLittleTime 	0
scalar RSUExampleScenario.node[29].nic.mac1609_4 	TimesIntoBackoff 	1
scalar RSUExampleScenario.node[29].nic.mac1609_4 	SlotsBackoff 	3
scalar RSUExampleScenario.node[29].nic.mac1609_4 	NumInternalContention 	0
scalar RSUExampleScenario.node[29].nic.mac1609_4 	totalBusyTime 	0.002785
scalar RSUExampleScenario.node[29].veinsmobility 	startTime 	51
scalar RSUExampleScenario.node[29].veinsmobility 	totalTime 	629
scalar RSUExampleScenario.node[29].veinsmobility 	stopTime 	681
scalar RSUExampleScenario.node[29].veinsmobility 	minSpeed 	0
scalar RSUExampleScenario.node[29].veinsmobility 	maxSpeed 	16.657030648133
scalar RSUExampleScenario.node[29].veinsmobility 	totalDistance 	3353.278307595
scalar RSUExampleScenario.node[29].veinsmobility 	totalCO2Emission 	1199.3095088057
scalar RSUExampleScenario.node[58].nic.phy80211p 	busyTime 	3.6794425087108e-06
scalar RSUExampleScenario.node[58].nic.mac1609_4 	ReceivedUnicastPackets 	0
scalar RSUExampleScenario.node[58].nic.mac1609_4 	ReceivedBroadcasts 	17
scalar RSUExampleScenario.node[58].nic.mac1609_4 	SentPackets 	1
scalar RSUExampleScenario.node[58].nic.mac1609_4 	SNIRLostPackets 	5
scalar RSUExampleScenario.node[58].nic.mac1609_4 	RXTXLostPackets 	0
scalar RSUExampleScenario.node[58].nic.mac1609_4 	TotalLostPackets 	5
scalar RSUExampleScenario.node[58].nic.mac1609_4 	DroppedPacketsInMac 	0
scalar RSUExampleScenario.node[58].nic.mac1609_4 	TooLittleTime 	0
scalar RSUExampleScenario.node[58].nic.mac1609_4 	TimesIntoBackoff 	1
scalar RSUExampleScenario.node[58].nic.mac1609_4 	SlotsBackoff 	3
scalar RSUExampleScenario.node[58].nic.mac1609_4 	NumInternalContention 	0
scalar RSUExampleScenario.node[58].nic.mac1609_4 	totalBusyTime 	0.001921
scalar RSUExampleScenario.node[58].veinsmobility 	startTime 	110
scalar RSUExampleScenario.node[58].veinsmobility 	totalTime 	573
scalar RSUExampleScenario.node[58].veinsmobility 	stopTime 	684
scalar RSUExampleScenario.node[58].veinsmobility 	minSpeed 	0
scalar RSUExampleScenario.node[58].veinsmobility 	maxSpeed 	27.765595991071
scalar RSUExampleScenario.node[58].veinsmobility 	totalDistance 	3405.5122050861
scalar RSUExampleScenario.node[58].veinsmobility 	totalCO2Emission 	1302.5263462922
scalar RSUExampleScenario.node[61].nic.phy80211p 	busyTime 	3.8804920913884e-06
scalar RSUExampleScenario.node[61].nic.mac1609_4 	ReceivedUnicastPackets 	0
scalar RSUExampleScenario.node[61].nic.mac1609_4 	ReceivedBroadcasts 	18
scalar RSUExampleScenario.node[61].nic.mac1609_4 	SentPackets 	1
scalar RSUExampleScenario.node[61].nic.mac1609_4 	SNIRLostPackets 	5
scalar RSUExampleScenario.node[61].nic.mac1609_4 	RXTXLostPackets 	0
scalar RSUExampleScenario.node[61].nic.mac1609_4 	TotalLostPackets 	5
scalar RSUExampleScenario.node[61].nic.mac1609_4 	DroppedPacketsInMac 	0
scalar RSUExampleScenario.node[61].nic.mac1609_4 	TooLittleTime 	0
scalar RSUExampleScenario.node[61].nic.mac1609_4 	TimesIntoBackoff 	1
scalar RSUExampleScenario.node[61].nic.mac1609_4 	SlotsBackoff 	3
scalar RSUExampleScenario.node[61].nic.mac1609_4 	NumInternalContention 	0
scalar RSUExampleScenario.node[61].nic.mac1609_4 	totalBusyTime 	0.002017
scalar RSUExampleScenario.node[61].veinsmobility 	startTime 	117
scalar RSUExampleScenario.node[61].veinsmobility 	totalTime 	568
scalar RSUExampleScenario.node[61].veinsmobility 	stopTime 	686
scalar RSUExampleScenario.node[61].veinsmobility 	minSpeed 	0
scalar RSUExampleScenario.node[61].veinsmobility 	maxSpeed 	27.777966337604
scalar RSUExampleScenario.node[61].veinsmobility 	totalDistance 	3404.6161029671
scalar RSUExampleScenario.node[61].veinsmobility 	totalCO2Emission 	1310.5595507289
scalar RSUExampleScenario.node[73].nic.phy80211p 	busyTime 	9.6880733944954e-06
scalar RSUExampleScenario.node[73].nic.mac1609_4 	ReceivedUnicastPackets 	0
scalar RSUExampleScenario.node[73].nic.mac1609_4 	ReceivedBroadcasts 	18
scalar RSUExampleScenario.node[73].nic.mac1609_4 	SentPackets 	1
scalar RSUExampleScenario.node[73].nic.mac1609_4 	SNIRLostPackets 	37
scalar RSUExampleScenario.node[73].nic.mac1609_4 	RXTXLostPackets 	2
scalar RSUExampleScenario.node[73].nic.mac1609_4 	TotalLostPackets 	39
scalar RSUExampleScenario.node[73].nic.mac1609_4 	DroppedPacketsInMac 	0
scalar RSUExampleScenario.node[73].nic.mac1609_4 	TooLittleTime 	0
scalar RSUExampleScenario.node[73].nic.mac1609_4 	TimesIntoBackoff 	2
scalar RSUExampleScenario.node[73].nic.mac1609_4 	SlotsBackoff 	3
scalar RSUExampleScenario.node[73].nic.mac1609_4 	NumInternalContention 	0
scalar RSUExampleScenario.node[73].nic.mac1609_4 	totalBusyTime 	0.003457
scalar RSUExampleScenario.node[73].veinsmobility 	startTime 	143
scalar RSUExampleScenario.node[73].veinsmobility 	totalTime 	544
scalar RSUExampleScenario.node[73].veinsmobility 	stopTime 	688
scalar RSUExampleScenario.node[73].veinsmobility 	minSpeed 	0
scalar RSUExampleScenario.node[73].veinsmobility 	maxSpeed 	27.751886725063
scalar RSUExampleScenario.node[73].veinsmobility 	totalDistance 	3395.8559953816
scalar RSUExampleScenario.node[73].veinsmobility 	totalCO2Emission 	1307.5043613794
scalar RSUExampleScenario.node[35].nic.phy80211p 	busyTime 	4.4260731319555e-06
scalar RSUExampleScenario.node[35].nic.mac1609_4 	ReceivedUnicastPackets 	0
scalar RSUExampleScenario.node[35].nic.mac1609_4 	ReceivedBroadcasts 	20
scalar RSUExampleScenario.node[35].nic.mac1609_4 	SentPackets 	1
scalar RSUExampleScenario.node[35].nic.mac1609_4 	SNIRLostPackets 	9
scalar RSUExampleScenario.node[35].nic.mac1609_4 	RXTXLostPackets 	0
scalar RSUExampleScenario.node[35].nic.mac1609_4 	TotalLostPackets 	9
scalar RSUExampleScenario.node[35].nic.mac1609_4 	DroppedPacketsInMac 	0
scalar RSUExampleScenario.node[35].nic.mac1609_4 	TooLittleTime 	0
scalar RSUExampleScenario.node[35].nic.mac1609_4 	TimesIntoBackoff 	2
scalar RSUExampleScenario.node[35].nic.mac1609_4 	SlotsBackoff 	9
scalar RSUExampleScenario.node[35].nic.mac1609_4 	NumInternalContention 	0
scalar RSUExampleScenario.node[35].nic.mac1609_4 	totalBusyTime 	0.002401
scalar RSUExampleScenario.node[35].veinsmobility 	startTime 	62
scalar RSUExampleScenario.node[35].veinsmobility 	totalTime 	628
scalar RSUExampleScenario.node[35].veinsmobility 	stopTime 	691
scalar RSUExampleScenario.node[35].veinsmobility 	minSpeed 	0
scalar RSUExampleScenario.node[35].veinsmobility 	maxSpeed 	16.653738829046
scalar RSUExampleScenario.node[35].veinsmobility 	totalDistance 	3261.6939906693
scalar RSUExampleScenario.node[35].veinsmobility 	totalCO2Emission 	1210.0006577149
scalar RSUExampleScenario.node[75].nic.phy80211p 	busyTime 	7.032967032967e-06
scalar RSUExampleScenario.node[75].nic.mac1609_4 	ReceivedUnicastPackets 	0
scalar RSUExampleScenario.node[75].nic.mac1609_4 	ReceivedBroadcasts 	13
scalar RSUExampleScenario.node[75].nic.mac1609_4 	SentPackets 	1
scalar RSUExampleScenario.node[75].nic.mac1609_4 	SNIRLostPackets 	27
scalar RSUExampleScenario.node[75].nic.mac1609_4 	RXTXLostPackets 	2
scalar RSUExampleScenario.node[75].nic.mac1609_4 	TotalLostPackets 	29
scalar RSUExampleScenario.node[75].nic.mac1609_4 	DroppedPacketsInMac 	0
scalar RSUExampleScenario.node[75].nic.mac1609_4 	TooLittleTime 	0
scalar RSUExampleScenario.node[75].nic.mac1609_4 	TimesIntoBackoff 	1
scalar RSUExampleScenario.node[75].nic.mac1609_4 	SlotsBackoff 	5
scalar RSUExampleScenario.node[75].nic.mac1609_4 	NumInternalContention 	0
scalar RSUExampleScenario.node[75].nic.mac1609_4 	totalBusyTime 	0.002497
scalar RSUExampleScenario.node[75].veinsmobility 	startTime 	147
scalar RSUExampleScenario.node[75].veinsmobility 	totalTime 	545
scalar RSUExampleScenario.node[75].veinsmobility 	stopTime 	693
scalar RSUExampleScenario.node[75].veinsmobility 	minSpeed 	0
scalar RSUExampleScenario.node[75].veinsmobility 	maxSpeed 	27.76050878156
scalar RSUExampleScenario.node[75].veinsmobility 	totalDistance 	3404.7053324817
scalar RSUExampleScenario.node[75].veinsmobility 	totalCO2Emission 	1373.1887326541
scalar RSUExampleScenario.node[57].nic.phy80211p 	busyTime 	3.5979557069847e-06
scalar RSUExampleScenario.node[57].nic.mac1609_4 	ReceivedUnicastPackets 	0
scalar RSUExampleScenario.node[57].nic.mac1609_4 	ReceivedBroadcasts 	16
scalar RSUExampleScenario.node[57].nic.mac1609_4 	SentPackets 	1
scalar RSUExampleScenario.node[57].nic.mac1609_4 	SNIRLostPackets 	6
scalar RSUExampleScenario.node[57].nic.mac1609_4 	RXTXLostPackets 	0
scalar RSUExampleScenario.node[57].nic.mac1609_4 	TotalLostPackets 	6
scalar RSUExampleScenario.node[57].nic.mac1609_4 	DroppedPacketsInMac 	0
scalar RSUExampleScenario.node[57].nic.mac1609_4 	TooLittleTime 	0
scalar RSUExampleScenario.node[57].nic.mac1609_4 	TimesIntoBackoff 	1
scalar RSUExampleScenario.node[57].nic.mac1609_4 	SlotsBackoff 	7
scalar RSUExampleScenario.node[57].nic.mac1609_4 	NumInternalContention 	0
scalar RSUExampleScenario.node[57].nic.mac1609_4 	totalBusyTime 	0.001921
scalar RSUExampleScenario.node[57].veinsmobility 	startTime 	108
scalar RSUExampleScenario.node[57].veinsmobility 	totalTime 	586
scalar RSUExampleScenario.node[57].veinsmobility 	stopTime 	695
scalar RSUExampleScenario.node[57].veinsmobility 	minSpeed 	0
scalar RSUExampleScenario.node[57].veinsmobility 	maxSpeed 	27.740527920099
scalar RSUExampleScenario.node[57].veinsmobility 	totalDistance 	3396.3157132829
scalar RSUExampleScenario.node[57].veinsmobility 	totalCO2Emission 	1292.997872357
scalar RSUExampleScenario.node[39].nic.phy80211p 	busyTime 	4.1273885350318e-06
scalar RSUExampleScenario.node[39].nic.mac1609_4 	ReceivedUnicastPackets 	0
scalar RSUExampleScenario.node[39].nic.mac1609_4 	ReceivedBroadcasts 	21
scalar RSUExampleScenario.node[39].nic.mac1609_4 	SentPackets 	1
scalar RSUExampleScenario.node[39].nic.mac1609_4 	SNIRLostPackets 	6
scalar RSUExampleScenario.node[39].nic.mac1609_4 	RXTXLostPackets 	0
scalar RSUExampleScenario.node[39].nic.mac1609_4 	TotalLostPackets 	6
scalar RSUExampleScenario.node[39].nic.mac1609_4 	DroppedPacketsInMac 	0
scalar RSUExampleScenario.node[39].nic.mac1609_4 	TooLittleTime 	0
scalar RSUExampleScenario.node[39].nic.mac1609_4 	TimesIntoBackoff 	1
scalar RSUExampleScenario.node[39].nic.mac1609_4 	SlotsBackoff 	2
scalar RSUExampleScenario.node[39].nic.mac1609_4 	NumInternalContention 	0
scalar RSUExampleScenario.node[39].nic.mac1609_4 	totalBusyTime 	0.002401
scalar RSUExampleScenario.node[39].veinsmobility 	startTime 	70
scalar RSUExampleScenario.node[39].veinsmobility 	totalTime 	627
scalar RSUExampleScenario.node[39].veinsmobility 	stopTime 	698
scalar RSUExampleScenario.node[39].veinsmobility 	minSpeed 	0
scalar RSUExampleScenario.node[39].veinsmobility 	maxSpeed 	16.66650011058
scalar RSUExampleScenario.node[39].veinsmobility 	totalDistance 	3253.2696925982
scalar RSUExampleScenario.node[39].veinsmobility 	totalCO2Emission 	1166.8122219996
scalar RSUExampleScenario.node[41].nic.phy80211p 	busyTime 	4.4472843450479e-06
scalar RSUExampleScenario.node[41].nic.mac1609_4 	ReceivedUnicastPackets 	0
scalar RSUExampleScenario.node[41].nic.mac1609_4 	ReceivedBroadcasts 	22
scalar RSUExampleScenario.node[41].nic.mac1609_4 	SentPackets 	1
scalar RSUExampleScenario.node[41].nic.mac1609_4 	SNIRLostPackets 	7
scalar RSUExampleScenario.node[41].nic.mac1609_4 	RXTXLostPackets 	0
scalar RSUExampleScenario.node[41].nic.mac1609_4 	TotalLostPackets 	7
scalar RSUExampleScenario.node[41].nic.mac1609_4 	DroppedPacketsInMac 	0
scalar RSUExampleScenario.node[41].nic.mac1609_4 	TooLittleTime 	0
scalar RSUExampleScenario.node[41].nic.mac1609_4 	TimesIntoBackoff 	2
scalar RSUExampleScenario.node[41].nic.mac1609_4 	SlotsBackoff 	6
scalar RSUExampleScenario.node[41].nic.mac1609_4 	NumInternalContention 	0
scalar RSUExampleScenario.node[41].nic.mac1609_4 	totalBusyTime 	0.002497081299
scalar RSUExampleScenario.node[41].veinsmobility 	startTime 	74
scalar RSUExampleScenario.node[41].veinsmobility 	totalTime 	625
scalar RSUExampleScenario.node[41].veinsmobility 	stopTime 	700
scalar RSUExampleScenario.node[41].veinsmobility 	minSpeed 	0
scalar RSUExampleScenario.node[41].veinsmobility 	maxSpeed 	16.664702121122
scalar RSUExampleScenario.node[41].veinsmobility 	totalDistance 	3249.6001265209
scalar RSUExampleScenario.node[41].veinsmobility 	totalCO2Emission 	1164.4409132946
scalar RSUExampleScenario.node[42].nic.phy80211p 	busyTime 	4.4401913875598e-06
scalar RSUExampleScenario.node[42].nic.mac1609_4 	ReceivedUnicastPackets 	0
scalar RSUExampleScenario.node[42].nic.mac1609_4 	ReceivedBroadcasts 	22
scalar RSUExampleScenario.node[42].nic.mac1609_4 	SentPackets 	1
scalar RSUExampleScenario.node[42].nic.mac1609_4 	SNIRLostPackets 	7
scalar RSUExampleScenario.node[42].nic.mac1609_4 	RXTXLostPackets 	0
scalar RSUExampleScenario.node[42].nic.mac1609_4 	TotalLostPackets 	7
scalar RSUExampleScenario.node[42].nic.mac1609_4 	DroppedPacketsInMac 	0
scalar RSUExampleScenario.node[42].nic.mac1609_4 	TooLittleTime 	0
scalar RSUExampleScenario.node[42].nic.mac1609_4 	TimesIntoBackoff 	1
scalar RSUExampleScenario.node[42].nic.mac1609_4 	SlotsBackoff 	3
scalar RSUExampleScenario.node[42].nic.mac1609_4 	NumInternalContention 	0
scalar RSUExampleScenario.node[42].nic.mac1609_4 	totalBusyTime 	0.002497032703
scalar RSUExampleScenario.node[42].veinsmobility 	startTime 	76
scalar RSUExampleScenario.node[42].veinsmobility 	totalTime 	626
scalar RSUExampleScenario.node[42].veinsmobility 	stopTime 	703
scalar RSUExampleScenario.node[42].veinsmobility 	minSpeed 	0
scalar RSUExampleScenario.node[42].veinsmobility 	maxSpeed 	16.665926209213
scalar RSUExampleScenario.node[42].veinsmobility 	totalDistance 	3256.8132559813
scalar RSUExampleScenario.node[42].veinsmobility 	totalCO2Emission 	1154.364135948
scalar RSUExampleScenario.node[33].nic.phy80211p 	busyTime 	4.6794682422452e-06
scalar RSUExampleScenario.node[33].nic.mac1609_4 	ReceivedUnicastPackets 	0
scalar RSUExampleScenario.node[33].nic.mac1609_4 	ReceivedBroadcasts 	21
scalar RSUExampleScenario.node[33].nic.mac1609_4 	SentPackets 	1
scalar RSUExampleScenario.node[33].nic.mac1609_4 	SNIRLostPackets 	12
scalar RSUExampleScenario.node[33].nic.mac1609_4 	RXTXLostPackets 	0
scalar RSUExampleScenario.node[33].nic.mac1609_4 	TotalLostPackets 	12
scalar RSUExampleScenario.node[33].nic.mac1609_4 	DroppedPacketsInMac 	0
scalar RSUExampleScenario.node[33].nic.mac1609_4 	TooLittleTime 	0
scalar RSUExampleScenario.node[33].nic.mac1609_4 	TimesIntoBackoff 	1
scalar RSUExampleScenario.node[33].nic.mac1609_4 	SlotsBackoff 	3
scalar RSUExampleScenario.node[33].nic.mac1609_4 	NumInternalContention 	0
scalar RSUExampleScenario.node[33].nic.mac1609_4 	totalBusyTime 	0.002726183865
scalar RSUExampleScenario.node[33].veinsmobility 	startTime 	58
scalar RSUExampleScenario.node[33].veinsmobility 	totalTime 	676
scalar RSUExampleScenario.node[33].veinsmobility 	stopTime 	735
scalar RSUExampleScenario.node[33].veinsmobility 	minSpeed 	0
scalar RSUExampleScenario.node[33].veinsmobility 	maxSpeed 	16.655745779173
scalar RSUExampleScenario.node[33].veinsmobility 	totalDistance 	3257.0753838553
scalar RSUExampleScenario.node[33].veinsmobility 	totalCO2Emission 	1266.1349681717
scalar RSUExampleScenario.node[125].nic.phy80211p 	busyTime 	8.2171189979123e-06
scalar RSUExampleScenario.node[125].nic.mac1609_4 	ReceivedUnicastPackets 	0
scalar RSUExampleScenario.node[125].nic.mac1609_4 	ReceivedBroadcasts 	27
scalar RSUExampleScenario.node[125].nic.mac1609_4 	SentPackets 	1
scalar RSUExampleScenario.node[125].nic.mac1609_4 	SNIRLostPackets 	14
scalar RSUExampleScenario.node[125].nic.mac1609_4 	RXTXLostPackets 	1
scalar RSUExampleScenario.node[125].nic.mac1609_4 	TotalLostPackets 	15
scalar RSUExampleScenario.node[125].nic.mac1609_4 	DroppedPacketsInMac 	0
scalar RSUExampleScenario.node[125].nic.mac1609_4 	TooLittleTime 	0
scalar RSUExampleScenario.node[125].nic.mac1609_4 	TimesIntoBackoff 	1
scalar RSUExampleScenario.node[125].nic.mac1609_4 	SlotsBackoff 	4
scalar RSUExampleScenario.node[125].nic.mac1609_4 	NumInternalContention 	0
scalar RSUExampleScenario.node[125].nic.mac1609_4 	totalBusyTime 	0.00316913283
scalar RSUExampleScenario.node[125].veinsmobility 	startTime 	259
scalar RSUExampleScenario.node[125].veinsmobility 	totalTime 	478
scalar RSUExampleScenario.node[125].veinsmobility 	stopTime 	738
scalar RSUExampleScenario.node[125].veinsmobility 	minSpeed 	0
scalar RSUExampleScenario.node[125].veinsmobility 	maxSpeed 	27.759843823174
scalar RSUExampleScenario.node[125].veinsmobility 	totalDistance 	3396.7943137823
scalar RSUExampleScenario.node[125].veinsmobility 	totalCO2Emission 	1135.1476320615
scalar RSUExampleScenario.node[79].nic.phy80211p 	busyTime 	5.8084033613445e-06
scalar RSUExampleScenario.node[79].nic.mac1609_4 	ReceivedUnicastPackets 	0
scalar RSUExampleScenario.node[79].nic.mac1609_4 	ReceivedBroadcasts 	22
scalar RSUExampleScenario.node[79].nic.mac1609_4 	SentPackets 	1
scalar RSUExampleScenario.node[79].nic.mac1609_4 	SNIRLostPackets 	14
scalar RSUExampleScenario.node[79].nic.mac1609_4 	RXTXLostPackets 	0
scalar RSUExampleScenario.node[79].nic.mac1609_4 	TotalLostPackets 	14
scalar RSUExampleScenario.node[79].nic.mac1609_4 	DroppedPacketsInMac 	0
scalar RSUExampleScenario.node[79].nic.mac1609_4 	TooLittleTime 	0
scalar RSUExampleScenario.node[79].nic.mac1609_4 	TimesIntoBackoff 	2
scalar RSUExampleScenario.node[79].nic.mac1609_4 	SlotsBackoff 	1
scalar RSUExampleScenario.node[79].nic.mac1609_4 	NumInternalContention 	0
scalar RSUExampleScenario.node[79].nic.mac1609_4 	totalBusyTime 	0.002785
scalar RSUExampleScenario.node[79].veinsmobility 	startTime 	156
scalar RSUExampleScenario.node[79].veinsmobility 	totalTime 	594
scalar RSUExampleScenario.node[79].veinsmobility 	stopTime 	751
scalar RSUExampleScenario.node[79].veinsmobility 	minSpeed 	0
scalar RSUExampleScenario.node[79].veinsmobility 	maxSpeed 	27.77485018664
scalar RSUExampleScenario.node[79].veinsmobility 	totalDistance 	3402.6935632585
scalar RSUExampleScenario.node[79].veinsmobility 	totalCO2Emission 	1408.4442038049
scalar RSUExampleScenario.node[118].nic.phy80211p 	busyTime 	8.5747572815534e-06
scalar RSUExampleScenario.node[118].nic.mac1609_4 	ReceivedUnicastPackets 	0
scalar RSUExampleScenario.node[118].nic.mac1609_4 	ReceivedBroadcasts 	30
scalar RSUExampleScenario.node[118].nic.mac1609_4 	SentPackets 	1
scalar RSUExampleScenario.node[118].nic.mac1609_4 	SNIRLostPackets 	16
scalar RSUExampleScenario.node[118].nic.mac1609_4 	RXTXLostPackets 	0
scalar RSUExampleScenario.node[118].nic.mac1609_4 	TotalLostPackets 	16
scalar RSUExampleScenario.node[118].nic.mac1609_4 	DroppedPacketsInMac 	0
scalar RSUExampleScenario.node[118].nic.mac1609_4 	TooLittleTime 	0
scalar RSUExampleScenario.node[118].nic.mac1609_4 	TimesIntoBackoff 	2
scalar RSUExampleScenario.node[118].nic.mac1609_4 	SlotsBackoff 	8
scalar RSUExampleScenario.node[118].nic.mac1609_4 	NumInternalContention 	0
scalar RSUExampleScenario.node[118].nic.mac1609_4 	totalBusyTime 	0.003553
scalar RSUExampleScenario.node[118].veinsmobility 	startTime 	243
scalar RSUExampleScenario.node[118].veinsmobility 	totalTime 	514
scalar RSUExampleScenario.node[118].veinsmobility 	stopTime 	758
scalar RSUExampleScenario.node[118].veinsmobility 	minSpeed 	0
scalar RSUExampleScenario.node[118].veinsmobility 	maxSpeed 	27.772706530867
scalar RSUExampleScenario.node[118].veinsmobility 	totalDistance 	3399.2095086948
scalar RSUExampleScenario.node[118].veinsmobility 	totalCO2Emission 	1155.5856096099
scalar RSUExampleScenario.node[37].nic.phy80211p 	busyTime 	3.5965417867435e-06
scalar RSUExampleScenario.node[37].nic.mac1609_4 	ReceivedUnicastPackets 	0
scalar RSUExampleScenario.node[37].nic.mac1609_4 	ReceivedBroadcasts 	23
scalar RSUExampleScenario.node[37].nic.mac1609_4 	SentPackets 	1
scalar RSUExampleScenario.node[37].nic.mac1609_4 	SNIRLostPackets 	3
scalar RSUExampleScenario.node[37].nic.mac1609_4 	RXTXLostPackets 	1
scalar RSUExampleScenario.node[37].nic.mac1609_4 	TotalLostPackets 	4
scalar RSUExampleScenario.node[37].nic.mac1609_4 	DroppedPacketsInMac 	0
scalar RSUExampleScenario.node[37].nic.mac1609_4 	TooLittleTime 	0
scalar RSUExampleScenario.node[37].nic.mac1609_4 	TimesIntoBackoff 	2
scalar RSUExampleScenario.node[37].nic.mac1609_4 	SlotsBackoff 	8
scalar RSUExampleScenario.node[37].nic.mac1609_4 	NumInternalContention 	0
scalar RSUExampleScenario.node[37].nic.mac1609_4 	totalBusyTime 	0.002401
scalar RSUExampleScenario.node[37].veinsmobility 	startTime 	66
scalar RSUExampleScenario.node[37].veinsmobility 	totalTime 	693
scalar RSUExampleScenario.node[37].veinsmobility 	stopTime 	760
scalar RSUExampleScenario.node[37].veinsmobility 	minSpeed 	0
scalar RSUExampleScenario.node[37].veinsmobility 	maxSpeed 	16.648287990186
scalar RSUExampleScenario.node[37].veinsmobility 	totalDistance 	3252.2652752665
scalar RSUExampleScenario.node[37].veinsmobility 	totalCO2Emission 	1270.0917006893
scalar RSUExampleScenario.node[36].nic.phy80211p 	busyTime 	3.5154929577465e-06
scalar RSUExampleScenario.node[36].nic.mac1609_4 	ReceivedUnicastPackets 	0
scalar RSUExampleScenario.node[36].nic.mac1609_4 	ReceivedBroadcasts 	22
scalar RSUExampleScenario.node[36].nic.mac1609_4 	SentPackets 	1
scalar RSUExampleScenario.node[36].nic.mac1609_4 	SNIRLostPackets 	4
scalar RSUExampleScenario.node[36].nic.mac1609_4 	RXTXLostPackets 	1
scalar RSUExampleScenario.node[36].nic.mac1609_4 	TotalLostPackets 	5
scalar RSUExampleScenario.node[36].nic.mac1609_4 	DroppedPacketsInMac 	0
scalar RSUExampleScenario.node[36].nic.mac1609_4 	TooLittleTime 	0
scalar RSUExampleScenario.node[36].nic.mac1609_4 	TimesIntoBackoff 	1
scalar RSUExampleScenario.node[36].nic.mac1609_4 	SlotsBackoff 	7
scalar RSUExampleScenario.node[36].nic.mac1609_4 	NumInternalContention 	0
scalar RSUExampleScenario.node[36].nic.mac1609_4 	totalBusyTime 	0.002401
scalar RSUExampleScenario.node[36].veinsmobility 	startTime 	64
scalar RSUExampleScenario.node[36].veinsmobility 	totalTime 	709
scalar RSUExampleScenario.node[36].veinsmobility 	stopTime 	774
scalar RSUExampleScenario.node[36].veinsmobility 	minSpeed 	0
scalar RSUExampleScenario.node[36].veinsmobility 	maxSpeed 	16.66975795038
scalar RSUExampleScenario.node[36].veinsmobility 	totalDistance 	3251.6022838103
scalar RSUExampleScenario.node[36].veinsmobility 	totalCO2Emission 	1313.2758977127
scalar RSUExampleScenario.node[43].nic.phy80211p 	busyTime 	4.0620592383639e-06
scalar RSUExampleScenario.node[43].nic.mac1609_4 	ReceivedUnicastPackets 	0
scalar RSUExampleScenario.node[43].nic.mac1609_4 	ReceivedBroadcasts 	21
scalar RSUExampleScenario.node[43].nic.mac1609_4 	SentPackets 	1
scalar RSUExampleScenario.node[43].nic.mac1609_4 	SNIRLostPackets 	9
scalar RSUExampleScenario.node[43].nic.mac1609_4 	RXTXLostPackets 	0
scalar RSUExampleScenario.node[43].nic.mac1609_4 	TotalLostPackets 	9
scalar RSUExampleScenario.node[43].nic.mac1609_4 	DroppedPacketsInMac 	0
scalar RSUExampleScenario.node[43].nic.mac1609_4 	TooLittleTime 	0
scalar RSUExampleScenario.node[43].nic.mac1609_4 	TimesIntoBackoff 	2
scalar RSUExampleScenario.node[43].nic.mac1609_4 	SlotsBackoff 	1
scalar RSUExampleScenario.node[43].nic.mac1609_4 	NumInternalContention 	0
scalar RSUExampleScenario.node[43].nic.mac1609_4 	totalBusyTime 	0.002497
scalar RSUExampleScenario.node[43].veinsmobility 	startTime 	78
scalar RSUExampleScenario.node[43].veinsmobility 	totalTime 	708
scalar RSUExampleScenario.node[43].veinsmobility 	stopTime 	787
scalar RSUExampleScenario.node[43].veinsmobility 	minSpeed 	0
scalar RSUExampleScenario.node[43].veinsmobility 	maxSpeed 	16.664770262344
scalar RSUExampleScenario.node[43].veinsmobility 	totalDistance 	3257.7665208382
scalar RSUExampleScenario.node[43].veinsmobility 	totalCO2Emission 	1225.9977220702
scalar RSUExampleScenario.node[44].nic.phy80211p 	busyTime 	4.056338028169e-06
scalar RSUExampleScenario.node[44].nic.mac1609_4 	ReceivedUnicastPackets 	0
scalar RSUExampleScenario.node[44].nic.mac1609_4 	ReceivedBroadcasts 	22
scalar RSUExampleScenario.node[44].nic.mac1609_4 	SentPackets 	1
scalar RSUExampleScenario.node[44].nic.mac1609_4 	SNIRLostPackets 	8
scalar RSUExampleScenario.node[44].nic.mac1609_4 	RXTXLostPackets 	1
scalar RSUExampleScenario.node[44].nic.mac1609_4 	TotalLostPackets 	9
scalar RSUExampleScenario.node[44].nic.mac1609_4 	DroppedPacketsInMac 	0
scalar RSUExampleScenario.node[44].nic.mac1609_4 	TooLittleTime 	0
scalar RSUExampleScenario.node[44].nic.mac1609_4 	TimesIntoBackoff 	1
scalar RSUExampleScenario.node[44].nic.mac1609_4 	SlotsBackoff 	2
scalar RSUExampleScenario.node[44].nic.mac1609_4 	NumInternalContention 	0
scalar RSUExampleScenario.node[44].nic.mac1609_4 	totalBusyTime 	0.002497
scalar RSUExampleScenario.node[44].veinsmobility 	startTime 	80
scalar RSUExampleScenario.node[44].veinsmobility 	totalTime 	709
scalar RSUExampleScenario.node[44].veinsmobility 	stopTime 	790
scalar RSUExampleScenario.node[44].veinsmobility 	minSpeed 	0
scalar RSUExampleScenario.node[44].veinsmobility 	maxSpeed 	16.665087060974
scalar RSUExampleScenario.node[44].veinsmobility 	totalDistance 	3254.8687867885
scalar RSUExampleScenario.node[44].veinsmobility 	totalCO2Emission 	1193.7239817903
scalar RSUExampleScenario.node[45].nic.phy80211p 	busyTime 	4.1856540084388e-06
scalar RSUExampleScenario.node[45].nic.mac1609_4 	ReceivedUnicastPackets 	0
scalar RSUExampleScenario.node[45].nic.mac1609_4 	ReceivedBroadcasts 	21
scalar RSUExampleScenario.node[45].nic.mac1609_4 	SentPackets 	1
scalar RSUExampleScenario.node[45].nic.mac1609_4 	SNIRLostPackets 	10
scalar RSUExampleScenario.node[45].nic.mac1609_4 	RXTXLostPackets 	0
scalar RSUExampleScenario.node[45].nic.mac1609_4 	TotalLostPackets 	10
scalar RSUExampleScenario.node[45].nic.mac1609_4 	DroppedPacketsInMac 	0
scalar RSUExampleScenario.node[45].nic.mac1609_4 	TooLittleTime 	0
scalar RSUExampleScenario.node[45].nic.mac1609_4 	TimesIntoBackoff 	2
scalar RSUExampleScenario.node[45].nic.mac1609_4 	SlotsBackoff 	9
scalar RSUExampleScenario.node[45].nic.mac1609_4 	NumInternalContention 	0
scalar RSUExampleScenario.node[45].nic.mac1609_4 	totalBusyTime 	0.002593
scalar RSUExampleScenario.node[45].veinsmobility 	startTime 	82
scalar RSUExampleScenario.node[45].veinsmobility 	totalTime 	710
scalar RSUExampleScenario.node[45].veinsmobility 	stopTime 	793
scalar RSUExampleScenario.node[45].veinsmobility 	minSpeed 	0
scalar RSUExampleScenario.node[45].veinsmobility 	maxSpeed 	16.663262948621
scalar RSUExampleScenario.node[45].veinsmobility 	totalDistance 	3256.2853778755
scalar RSUExampleScenario.node[45].veinsmobility 	totalCO2Emission 	1189.344064869
scalar RSUExampleScenario.node[85].nic.phy80211p 	busyTime 	6.594249201278e-06
scalar RSUExampleScenario.node[85].nic.mac1609_4 	ReceivedUnicastPackets 	0
[...]
scalar RSUExampleScenario.node[136].veinsmobility 	maxSpeed 	16.658145423196
scalar RSUExampleScenario.node[136].veinsmobility 	totalDistance 	3247.8802208983
scalar RSUExampleScenario.node[136].veinsmobility 	totalCO2Emission 	1192.409033367
scalar RSUExampleScenario.node[137].nic.phy80211p 	busyTime 	6.5314505776637e-06
scalar RSUExampleScenario.node[137].nic.mac1609_4 	ReceivedUnicastPackets 	0
scalar RSUExampleScenario.node[137].nic.mac1609_4 	ReceivedBroadcasts 	28
scalar RSUExampleScenario.node[137].nic.mac1609_4 	SentPackets 	1
scalar RSUExampleScenario.node[137].nic.mac1609_4 	SNIRLostPackets 	25
scalar RSUExampleScenario.node[137].nic.mac1609_4 	RXTXLostPackets 	0
scalar RSUExampleScenario.node[137].nic.mac1609_4 	TotalLostPackets 	25
scalar RSUExampleScenario.node[137].nic.mac1609_4 	DroppedPacketsInMac 	0
scalar RSUExampleScenario.node[137].nic.mac1609_4 	TooLittleTime 	0
scalar RSUExampleScenario.node[137].nic.mac1609_4 	TimesIntoBackoff 	1
scalar RSUExampleScenario.node[137].nic.mac1609_4 	SlotsBackoff 	2
scalar RSUExampleScenario.node[137].nic.mac1609_4 	NumInternalContention 	0
scalar RSUExampleScenario.node[137].nic.mac1609_4 	totalBusyTime 	0.003745003563
scalar RSUExampleScenario.node[137].veinsmobility 	startTime 	289
scalar RSUExampleScenario.node[137].veinsmobility 	totalTime 	778
scalar RSUExampleScenario.node[137].veinsmobility 	stopTime 	1068
scalar RSUExampleScenario.node[137].veinsmobility 	minSpeed 	0
scalar RSUExampleScenario.node[137].veinsmobility 	maxSpeed 	16.664781488916
scalar RSUExampleScenario.node[137].veinsmobility 	totalDistance 	3253.1456564661
scalar RSUExampleScenario.node[137].veinsmobility 	totalCO2Emission 	1212.6016617625
scalar RSUExampleScenario.node[103].nic.phy80211p 	busyTime 	3.2334494773519e-06
scalar RSUExampleScenario.node[103].nic.mac1609_4 	ReceivedUnicastPackets 	0
scalar RSUExampleScenario.node[103].nic.mac1609_4 	ReceivedBroadcasts 	23
scalar RSUExampleScenario.node[103].nic.mac1609_4 	SentPackets 	1
scalar RSUExampleScenario.node[103].nic.mac1609_4 	SNIRLostPackets 	6
scalar RSUExampleScenario.node[103].nic.mac1609_4 	RXTXLostPackets 	0
scalar RSUExampleScenario.node[103].nic.mac1609_4 	TotalLostPackets 	6
scalar RSUExampleScenario.node[103].nic.mac1609_4 	DroppedPacketsInMac 	0
scalar RSUExampleScenario.node[103].nic.mac1609_4 	TooLittleTime 	0
scalar RSUExampleScenario.node[103].nic.mac1609_4 	TimesIntoBackoff 	1
scalar RSUExampleScenario.node[103].nic.mac1609_4 	SlotsBackoff 	7
scalar RSUExampleScenario.node[103].nic.mac1609_4 	NumInternalContention 	0
scalar RSUExampleScenario.node[103].nic.mac1609_4 	totalBusyTime 	0.002593
scalar RSUExampleScenario.node[103].veinsmobility 	startTime 	211
scalar RSUExampleScenario.node[103].veinsmobility 	totalTime 	860
scalar RSUExampleScenario.node[103].veinsmobility 	stopTime 	1072
scalar RSUExampleScenario.node[103].veinsmobility 	minSpeed 	0
scalar RSUExampleScenario.node[103].veinsmobility 	maxSpeed 	16.660908045318
scalar RSUExampleScenario.node[103].veinsmobility 	totalDistance 	4019.8767425959
scalar RSUExampleScenario.node[103].veinsmobility 	totalCO2Emission 	1366.2329370095
scalar RSUExampleScenario.node[104].nic.phy80211p 	busyTime 	3.3410672853828e-06
scalar RSUExampleScenario.node[104].nic.mac1609_4 	ReceivedUnicastPackets 	0
scalar RSUExampleScenario.node[104].nic.mac1609_4 	ReceivedBroadcasts 	23
scalar RSUExampleScenario.node[104].nic.mac1609_4 	SentPackets 	1
scalar RSUExampleScenario.node[104].nic.mac1609_4 	SNIRLostPackets 	7
scalar RSUExampleScenario.node[104].nic.mac1609_4 	RXTXLostPackets 	0
scalar RSUExampleScenario.node[104].nic.mac1609_4 	TotalLostPackets 	7
scalar RSUExampleScenario.node[104].nic.mac1609_4 	DroppedPacketsInMac 	0
scalar RSUExampleScenario.node[104].nic.mac1609_4 	TooLittleTime 	0
scalar RSUExampleScenario.node[104].nic.mac1609_4 	TimesIntoBackoff 	2
scalar RSUExampleScenario.node[104].nic.mac1609_4 	SlotsBackoff 	11
scalar RSUExampleScenario.node[104].nic.mac1609_4 	NumInternalContention 	0
scalar RSUExampleScenario.node[104].nic.mac1609_4 	totalBusyTime 	0.002593
scalar RSUExampleScenario.node[104].veinsmobility 	startTime 	213
scalar RSUExampleScenario.node[104].veinsmobility 	totalTime 	861
scalar RSUExampleScenario.node[104].veinsmobility 	stopTime 	1075
scalar RSUExampleScenario.node[104].veinsmobility 	minSpeed 	0
scalar RSUExampleScenario.node[104].veinsmobility 	maxSpeed 	16.669547259561
scalar RSUExampleScenario.node[104].veinsmobility 	totalDistance 	4019.9851733864
scalar RSUExampleScenario.node[104].veinsmobility 	totalCO2Emission 	1378.4073075032
scalar RSUExampleScenario.node[105].nic.phy80211p 	busyTime 	3.5596755504056e-06
scalar RSUExampleScenario.node[105].nic.mac1609_4 	ReceivedUnicastPackets 	0
scalar RSUExampleScenario.node[105].nic.mac1609_4 	ReceivedBroadcasts 	24
scalar RSUExampleScenario.node[105].nic.mac1609_4 	SentPackets 	1
scalar RSUExampleScenario.node[105].nic.mac1609_4 	SNIRLostPackets 	8
scalar RSUExampleScenario.node[105].nic.mac1609_4 	RXTXLostPackets 	0
scalar RSUExampleScenario.node[105].nic.mac1609_4 	TotalLostPackets 	8
scalar RSUExampleScenario.node[105].nic.mac1609_4 	DroppedPacketsInMac 	0
scalar RSUExampleScenario.node[105].nic.mac1609_4 	TooLittleTime 	0
scalar RSUExampleScenario.node[105].nic.mac1609_4 	TimesIntoBackoff 	2
scalar RSUExampleScenario.node[105].nic.mac1609_4 	SlotsBackoff 	7
scalar RSUExampleScenario.node[105].nic.mac1609_4 	NumInternalContention 	0
scalar RSUExampleScenario.node[105].nic.mac1609_4 	totalBusyTime 	0.002689
scalar RSUExampleScenario.node[105].veinsmobility 	startTime 	215
scalar RSUExampleScenario.node[105].veinsmobility 	totalTime 	862
scalar RSUExampleScenario.node[105].veinsmobility 	stopTime 	1078
scalar RSUExampleScenario.node[105].veinsmobility 	minSpeed 	0
scalar RSUExampleScenario.node[105].veinsmobility 	maxSpeed 	16.669614712754
scalar RSUExampleScenario.node[105].veinsmobility 	totalDistance 	4011.7598990274
scalar RSUExampleScenario.node[105].veinsmobility 	totalCO2Emission 	1372.4971982957
scalar RSUExampleScenario.node[106].nic.phy80211p 	busyTime 	3.7777777777778e-06
scalar RSUExampleScenario.node[106].nic.mac1609_4 	ReceivedUnicastPackets 	0
scalar RSUExampleScenario.node[106].nic.mac1609_4 	ReceivedBroadcasts 	24
scalar RSUExampleScenario.node[106].nic.mac1609_4 	SentPackets 	1
scalar RSUExampleScenario.node[106].nic.mac1609_4 	SNIRLostPackets 	10
scalar RSUExampleScenario.node[106].nic.mac1609_4 	RXTXLostPackets 	0
scalar RSUExampleScenario.node[106].nic.mac1609_4 	TotalLostPackets 	10
scalar RSUExampleScenario.node[106].nic.mac1609_4 	DroppedPacketsInMac 	0
scalar RSUExampleScenario.node[106].nic.mac1609_4 	TooLittleTime 	0
scalar RSUExampleScenario.node[106].nic.mac1609_4 	TimesIntoBackoff 	1
scalar RSUExampleScenario.node[106].nic.mac1609_4 	SlotsBackoff 	2
scalar RSUExampleScenario.node[106].nic.mac1609_4 	NumInternalContention 	0
scalar RSUExampleScenario.node[106].nic.mac1609_4 	totalBusyTime 	0.002785
scalar RSUExampleScenario.node[106].veinsmobility 	startTime 	218
scalar RSUExampleScenario.node[106].veinsmobility 	totalTime 	863
scalar RSUExampleScenario.node[106].veinsmobility 	stopTime 	1082
scalar RSUExampleScenario.node[106].veinsmobility 	minSpeed 	0
scalar RSUExampleScenario.node[106].veinsmobility 	maxSpeed 	16.669034813714
scalar RSUExampleScenario.node[106].veinsmobility 	totalDistance 	4012.6629749871
scalar RSUExampleScenario.node[106].veinsmobility 	totalCO2Emission 	1372.3572039925
scalar RSUExampleScenario.node[107].nic.phy80211p 	busyTime 	3.9953757225434e-06
scalar RSUExampleScenario.node[107].nic.mac1609_4 	ReceivedUnicastPackets 	0
scalar RSUExampleScenario.node[107].nic.mac1609_4 	ReceivedBroadcasts 	24
scalar RSUExampleScenario.node[107].nic.mac1609_4 	SentPackets 	1
scalar RSUExampleScenario.node[107].nic.mac1609_4 	SNIRLostPackets 	12
scalar RSUExampleScenario.node[107].nic.mac1609_4 	RXTXLostPackets 	0
scalar RSUExampleScenario.node[107].nic.mac1609_4 	TotalLostPackets 	12
scalar RSUExampleScenario.node[107].nic.mac1609_4 	DroppedPacketsInMac 	0
scalar RSUExampleScenario.node[107].nic.mac1609_4 	TooLittleTime 	0
scalar RSUExampleScenario.node[107].nic.mac1609_4 	TimesIntoBackoff 	2
scalar RSUExampleScenario.node[107].nic.mac1609_4 	SlotsBackoff 	7
scalar RSUExampleScenario.node[107].nic.mac1609_4 	NumInternalContention 	0
scalar RSUExampleScenario.node[107].nic.mac1609_4 	totalBusyTime 	0.002881
scalar RSUExampleScenario.node[107].veinsmobility 	startTime 	220
scalar RSUExampleScenario.node[107].veinsmobility 	totalTime 	864
scalar RSUExampleScenario.node[107].veinsmobility 	stopTime 	1085
scalar RSUExampleScenario.node[107].veinsmobility 	minSpeed 	0
scalar RSUExampleScenario.node[107].veinsmobility 	maxSpeed 	16.669727829368
scalar RSUExampleScenario.node[107].veinsmobility 	totalDistance 	4014.0565885298
scalar RSUExampleScenario.node[107].veinsmobility 	totalCO2Emission 	1363.0336742658
scalar RSUExampleScenario.node[108].nic.phy80211p 	busyTime 	4.2124711316397e-06
scalar RSUExampleScenario.node[108].nic.mac1609_4 	ReceivedUnicastPackets 	0
scalar RSUExampleScenario.node[108].nic.mac1609_4 	ReceivedBroadcasts 	26
scalar RSUExampleScenario.node[108].nic.mac1609_4 	SentPackets 	1
scalar RSUExampleScenario.node[108].nic.mac1609_4 	SNIRLostPackets 	12
scalar RSUExampleScenario.node[108].nic.mac1609_4 	RXTXLostPackets 	0
scalar RSUExampleScenario.node[108].nic.mac1609_4 	TotalLostPackets 	12
scalar RSUExampleScenario.node[108].nic.mac1609_4 	DroppedPacketsInMac 	0
scalar RSUExampleScenario.node[108].nic.mac1609_4 	TooLittleTime 	0
scalar RSUExampleScenario.node[108].nic.mac1609_4 	TimesIntoBackoff 	2
scalar RSUExampleScenario.node[108].nic.mac1609_4 	SlotsBackoff 	7
scalar RSUExampleScenario.node[108].nic.mac1609_4 	NumInternalContention 	0
scalar RSUExampleScenario.node[108].nic.mac1609_4 	totalBusyTime 	0.003073
scalar RSUExampleScenario.node[108].veinsmobility 	startTime 	222
scalar RSUExampleScenario.node[108].veinsmobility 	totalTime 	865
scalar RSUExampleScenario.node[108].veinsmobility 	stopTime 	1088
scalar RSUExampleScenario.node[108].veinsmobility 	minSpeed 	0
scalar RSUExampleScenario.node[108].veinsmobility 	maxSpeed 	16.668201559344
scalar RSUExampleScenario.node[108].veinsmobility 	totalDistance 	4009.5066430043
scalar RSUExampleScenario.node[108].veinsmobility 	totalCO2Emission 	1359.4437045099
scalar RSUExampleScenario.node[138].nic.phy80211p 	busyTime 	6.1276595744681e-06
scalar RSUExampleScenario.node[138].nic.mac1609_4 	ReceivedUnicastPackets 	0
scalar RSUExampleScenario.node[138].nic.mac1609_4 	ReceivedBroadcasts 	27
scalar RSUExampleScenario.node[138].nic.mac1609_4 	SentPackets 	1
scalar RSUExampleScenario.node[138].nic.mac1609_4 	SNIRLostPackets 	24
scalar RSUExampleScenario.node[138].nic.mac1609_4 	RXTXLostPackets 	2
scalar RSUExampleScenario.node[138].nic.mac1609_4 	TotalLostPackets 	26
scalar RSUExampleScenario.node[138].nic.mac1609_4 	DroppedPacketsInMac 	0
scalar RSUExampleScenario.node[138].nic.mac1609_4 	TooLittleTime 	0
scalar RSUExampleScenario.node[138].nic.mac1609_4 	TimesIntoBackoff 	2
scalar RSUExampleScenario.node[138].nic.mac1609_4 	SlotsBackoff 	6
scalar RSUExampleScenario.node[138].nic.mac1609_4 	NumInternalContention 	0
scalar RSUExampleScenario.node[138].nic.mac1609_4 	totalBusyTime 	0.003745003563
scalar RSUExampleScenario.node[138].veinsmobility 	startTime 	291
scalar RSUExampleScenario.node[138].veinsmobility 	totalTime 	798
scalar RSUExampleScenario.node[138].veinsmobility 	stopTime 	1090
scalar RSUExampleScenario.node[138].veinsmobility 	minSpeed 	0
scalar RSUExampleScenario.node[138].veinsmobility 	maxSpeed 	16.668267799374
scalar RSUExampleScenario.node[138].veinsmobility 	totalDistance 	3253.5816921765
scalar RSUExampleScenario.node[138].veinsmobility 	totalCO2Emission 	1221.0841546045
scalar RSUExampleScenario.node[109].nic.phy80211p 	busyTime 	4.4239631336406e-06
scalar RSUExampleScenario.node[109].nic.mac1609_4 	ReceivedUnicastPackets 	0
scalar RSUExampleScenario.node[109].nic.mac1609_4 	ReceivedBroadcasts 	25
scalar RSUExampleScenario.node[109].nic.mac1609_4 	SentPackets 	1
scalar RSUExampleScenario.node[109].nic.mac1609_4 	SNIRLostPackets 	15
scalar RSUExampleScenario.node[109].nic.mac1609_4 	RXTXLostPackets 	0
scalar RSUExampleScenario.node[109].nic.mac1609_4 	TotalLostPackets 	15
scalar RSUExampleScenario.node[109].nic.mac1609_4 	DroppedPacketsInMac 	0
scalar RSUExampleScenario.node[109].nic.mac1609_4 	TooLittleTime 	0
scalar RSUExampleScenario.node[109].nic.mac1609_4 	TimesIntoBackoff 	1
scalar RSUExampleScenario.node[109].nic.mac1609_4 	SlotsBackoff 	3
scalar RSUExampleScenario.node[109].nic.mac1609_4 	NumInternalContention 	0
scalar RSUExampleScenario.node[109].nic.mac1609_4 	totalBusyTime 	0.003073
scalar RSUExampleScenario.node[109].veinsmobility 	startTime 	224
scalar RSUExampleScenario.node[109].veinsmobility 	totalTime 	867
scalar RSUExampleScenario.node[109].veinsmobility 	stopTime 	1092
scalar RSUExampleScenario.node[109].veinsmobility 	minSpeed 	0
scalar RSUExampleScenario.node[109].veinsmobility 	maxSpeed 	16.668023438286
scalar RSUExampleScenario.node[109].veinsmobility 	totalDistance 	4003.9061874332
scalar RSUExampleScenario.node[109].veinsmobility 	totalCO2Emission 	1397.6664601135
scalar RSUExampleScenario.node[139].nic.phy80211p 	busyTime 	6.2322097378277e-06
scalar RSUExampleScenario.node[139].nic.mac1609_4 	ReceivedUnicastPackets 	0
scalar RSUExampleScenario.node[139].nic.mac1609_4 	ReceivedBroadcasts 	28
scalar RSUExampleScenario.node[139].nic.mac1609_4 	SentPackets 	1
scalar RSUExampleScenario.node[139].nic.mac1609_4 	SNIRLostPackets 	24
scalar RSUExampleScenario.node[139].nic.mac1609_4 	RXTXLostPackets 	0
scalar RSUExampleScenario.node[139].nic.mac1609_4 	TotalLostPackets 	24
scalar RSUExampleScenario.node[139].nic.mac1609_4 	DroppedPacketsInMac 	0
scalar RSUExampleScenario.node[139].nic.mac1609_4 	TooLittleTime 	0
scalar RSUExampleScenario.node[139].nic.mac1609_4 	TimesIntoBackoff 	1
scalar RSUExampleScenario.node[139].nic.mac1609_4 	SlotsBackoff 	3
scalar RSUExampleScenario.node[139].nic.mac1609_4 	NumInternalContention 	0
scalar RSUExampleScenario.node[139].nic.mac1609_4 	totalBusyTime 	0.003649003561
scalar RSUExampleScenario.node[139].veinsmobility 	startTime 	294
scalar RSUExampleScenario.node[139].veinsmobility 	totalTime 	800
scalar RSUExampleScenario.node[139].veinsmobility 	stopTime 	1095
scalar RSUExampleScenario.node[139].veinsmobility 	minSpeed 	0
scalar RSUExampleScenario.node[139].veinsmobility 	maxSpeed 	16.667318679243
scalar RSUExampleScenario.node[139].veinsmobility 	totalDistance 	3254.5011845832
scalar RSUExampleScenario.node[139].veinsmobility 	totalCO2Emission 	1215.1976775844
scalar RSUExampleScenario.node[110].nic.phy80211p 	busyTime 	5.1802525832377e-06
scalar RSUExampleScenario.node[110].nic.mac1609_4 	ReceivedUnicastPackets 	0
scalar RSUExampleScenario.node[110].nic.mac1609_4 	ReceivedBroadcasts 	25
scalar RSUExampleScenario.node[110].nic.mac1609_4 	SentPackets 	1
scalar RSUExampleScenario.node[110].nic.mac1609_4 	SNIRLostPackets 	22
scalar RSUExampleScenario.node[110].nic.mac1609_4 	RXTXLostPackets 	2
scalar RSUExampleScenario.node[110].nic.mac1609_4 	TotalLostPackets 	24
scalar RSUExampleScenario.node[110].nic.mac1609_4 	DroppedPacketsInMac 	0
scalar RSUExampleScenario.node[110].nic.mac1609_4 	TooLittleTime 	0
scalar RSUExampleScenario.node[110].nic.mac1609_4 	TimesIntoBackoff 	2
scalar RSUExampleScenario.node[110].nic.mac1609_4 	SlotsBackoff 	8
scalar RSUExampleScenario.node[110].nic.mac1609_4 	NumInternalContention 	0
scalar RSUExampleScenario.node[110].nic.mac1609_4 	totalBusyTime 	0.003361
scalar RSUExampleScenario.node[110].veinsmobility 	startTime 	226
scalar RSUExampleScenario.node[110].veinsmobility 	totalTime 	870
scalar RSUExampleScenario.node[110].veinsmobility 	stopTime 	1097
scalar RSUExampleScenario.node[110].veinsmobility 	minSpeed 	0
scalar RSUExampleScenario.node[110].veinsmobility 	maxSpeed 	16.668326702369
scalar RSUExampleScenario.node[110].veinsmobility 	totalDistance 	4012.2580153452
scalar RSUExampleScenario.node[110].veinsmobility 	totalCO2Emission 	1400.6206603521
scalar RSUExampleScenario.node[111].nic.phy80211p 	busyTime 	5.2844036697248e-06
scalar RSUExampleScenario.node[111].nic.mac1609_4 	ReceivedUnicastPackets 	0
scalar RSUExampleScenario.node[111].nic.mac1609_4 	ReceivedBroadcasts 	25
scalar RSUExampleScenario.node[111].nic.mac1609_4 	SentPackets 	1
scalar RSUExampleScenario.node[111].nic.mac1609_4 	SNIRLostPackets 	23
scalar RSUExampleScenario.node[111].nic.mac1609_4 	RXTXLostPackets 	1
scalar RSUExampleScenario.node[111].nic.mac1609_4 	TotalLostPackets 	24
scalar RSUExampleScenario.node[111].nic.mac1609_4 	DroppedPacketsInMac 	0
scalar RSUExampleScenario.node[111].nic.mac1609_4 	TooLittleTime 	0
scalar RSUExampleScenario.node[111].nic.mac1609_4 	TimesIntoBackoff 	1
scalar RSUExampleScenario.node[111].nic.mac1609_4 	SlotsBackoff 	4
scalar RSUExampleScenario.node[111].nic.mac1609_4 	NumInternalContention 	0
scalar RSUExampleScenario.node[111].nic.mac1609_4 	totalBusyTime 	0.003361
scalar RSUExampleScenario.node[111].veinsmobility 	startTime 	228
scalar RSUExampleScenario.node[111].veinsmobility 	totalTime 	871
scalar RSUExampleScenario.node[111].veinsmobility 	stopTime 	1100
scalar RSUExampleScenario.node[111].veinsmobility 	minSpeed 	0
scalar RSUExampleScenario.node[111].veinsmobility 	maxSpeed 	16.669065200789
scalar RSUExampleScenario.node[111].veinsmobility 	totalDistance 	4010.9546701283
scalar RSUExampleScenario.node[111].veinsmobility 	totalCO2Emission 	1398.9686752893
scalar RSUExampleScenario.node[140].nic.phy80211p 	busyTime 	6.1935483870968e-06
scalar RSUExampleScenario.node[140].nic.mac1609_4 	ReceivedUnicastPackets 	0
scalar RSUExampleScenario.node[140].nic.mac1609_4 	ReceivedBroadcasts 	26
scalar RSUExampleScenario.node[140].nic.mac1609_4 	SentPackets 	1
scalar RSUExampleScenario.node[140].nic.mac1609_4 	SNIRLostPackets 	26
scalar RSUExampleScenario.node[140].nic.mac1609_4 	RXTXLostPackets 	0
scalar RSUExampleScenario.node[140].nic.mac1609_4 	TotalLostPackets 	26
scalar RSUExampleScenario.node[140].nic.mac1609_4 	DroppedPacketsInMac 	0
scalar RSUExampleScenario.node[140].nic.mac1609_4 	TooLittleTime 	0
scalar RSUExampleScenario.node[140].nic.mac1609_4 	TimesIntoBackoff 	2
scalar RSUExampleScenario.node[140].nic.mac1609_4 	SlotsBackoff 	9
scalar RSUExampleScenario.node[140].nic.mac1609_4 	NumInternalContention 	0
scalar RSUExampleScenario.node[140].nic.mac1609_4 	totalBusyTime 	0.003649
scalar RSUExampleScenario.node[140].veinsmobility 	startTime 	296
scalar RSUExampleScenario.node[140].veinsmobility 	totalTime 	805
scalar RSUExampleScenario.node[140].veinsmobility 	stopTime 	1102
scalar RSUExampleScenario.node[140].veinsmobility 	minSpeed 	0
scalar RSUExampleScenario.node[140].veinsmobility 	maxSpeed 	16.669214281812
scalar RSUExampleScenario.node[140].veinsmobility 	totalDistance 	3251.592278297
scalar RSUExampleScenario.node[140].veinsmobility 	totalCO2Emission 	1207.0567462423
scalar RSUExampleScenario.rsu[0].nic.phy80211p 	busyTime 	4.32e-07
scalar RSUExampleScenario.rsu[0].nic.mac1609_4 	ReceivedUnicastPackets 	0
scalar RSUExampleScenario.rsu[0].nic.mac1609_4 	ReceivedBroadcasts 	28
scalar RSUExampleScenario.rsu[0].nic.mac1609_4 	SentPackets 	1
scalar RSUExampleScenario.rsu[0].nic.mac1609_4 	SNIRLostPackets 	17
scalar RSUExampleScenario.rsu[0].nic.mac1609_4 	RXTXLostPackets 	0
scalar RSUExampleScenario.rsu[0].nic.mac1609_4 	TotalLostPackets 	17
scalar RSUExampleScenario.rsu[0].nic.mac1609_4 	DroppedPacketsInMac 	0
scalar RSUExampleScenario.rsu[0].nic.mac1609_4 	TooLittleTime 	0
scalar RSUExampleScenario.rsu[0].nic.mac1609_4 	TimesIntoBackoff 	2
scalar RSUExampleScenario.rsu[0].nic.mac1609_4 	SlotsBackoff 	5
scalar RSUExampleScenario.rsu[0].nic.mac1609_4 	NumInternalContention 	0
scalar RSUExampleScenario.rsu[0].nic.mac1609_4 	totalBusyTime 	0.003745
