version 2
run debug-0-20161222-11:53:30-4497
attr configname debug
attr datetime 20161222-11:53:30
attr experiment debug
attr inifile omnetpp.ini
attr iterationvars ""
attr iterationvars2 $repetition=0
attr measurement ""
attr network RSUExampleScenario
attr processid 4497
attr repetition 0
attr replication #0
attr resultdir results
attr runnumber 0
attr seedset 0
param **.coreDebug false
param **.debug false
param *.**.nic.mac1609_4.bitrate 27Mbps
param *.**.nic.mac1609_4.txPower 20mW
param *.**.nic.mac1609_4.useServiceChannel false
param *.**.nic.phy80211p.analogueModels "xmldoc(\"config.xml\")"
param *.**.nic.phy80211p.decider "xmldoc(\"config.xml\")"
param *.**.nic.phy80211p.sensitivity -89dBm
param *.**.nic.phy80211p.thermalNoise -110dBm
param *.**.nic.phy80211p.usePropagationDelay true
param *.**.nic.phy80211p.useThermalNoise true
param *.annotations.draw false
param *.connectionManager.alpha 2.0
param *.connectionManager.carrierFrequency "5.890e9 Hz"
param *.connectionManager.pMax 20mW
param *.connectionManager.sat -89dBm
param *.connectionManager.sendDirect true
param *.manager.autoShutdown true
param *.manager.host "\"localhost\""
param *.manager.launchConfig "xmldoc(\"erlangen.launchd.xml\")"
param *.manager.margin 25
param *.manager.moduleDisplayString "\"\""
param *.manager.moduleName "\"node\""
param *.manager.moduleType "\"org.car2x.veins.nodes.Car\""
param *.manager.port 9999
param *.manager.updateInterval 1s
param *.node[*].appl.beaconInterval 1s
param *.node[*].appl.beaconPriority 3
param *.node[*].appl.dataOnSch false
param *.node[*].appl.dataPriority 2
param *.node[*].appl.debug false
param *.node[*].appl.headerLength "256 bit"
param *.node[*].appl.maxOffset 0.005s
param *.node[*].appl.sendBeacons false
param *.node[*].appl.sendData true
param *.node[*].applType "\"TraCIDemo11p\""
param *.node[*].mobilityType "\"TraCIMobility\""
param *.node[*].mobilityType.debug true
param *.node[*].veinsmobility.accidentCount 5
param *.node[*].veinsmobility.accidentDuration 43s
param *.node[*].veinsmobility.accidentStart 85s
param *.node[*].veinsmobility.x 0
param *.node[*].veinsmobility.y 0
param *.node[*].veinsmobility.z 1.895
param *.node[*].veinsmobilityType "\"org.car2x.veins.modules.mobility.traci.TraCIMobility\""
param *.node[*].veinsmobilityType.debug true
param *.obstacles.debug false
param *.obstacles.obstacles "xmldoc(\"config.xml\", \"//AnalogueModel[@type='SimpleObstacleShadowing']/obstacles\")"
param *.playgroundSizeX 2500m
param *.playgroundSizeY 2500m
param *.playgroundSizeZ 50m
param *.rsu[*].appl.beaconInterval 1s
param *.rsu[*].appl.beaconPriority 3
param *.rsu[*].appl.dataOnSch false
param *.rsu[*].appl.dataPriority 2
param *.rsu[*].appl.debug false
param *.rsu[*].appl.headerLength "256 bit"
param *.rsu[*].appl.maxOffset 0.005s
param *.rsu[*].appl.sendBeacons false
param *.rsu[*].appl.sendData true
param *.rsu[*].applType "\"TraCIDemoRSU11p\""
param *.rsu[0].mobility.x 2000
param *.rsu[0].mobility.y 2000
param *.rsu[0].mobility.z 3
param *.world.use2D false
param *.world.useTorus false

scalar RSUExampleScenario.node[0].nic.phy80211p 	busyTime 	2.9179331306991e-07
scalar RSUExampleScenario.node[0].nic.mac1609_4 	ReceivedUnicastPackets 	0
scalar RSUExampleScenario.node[0].nic.mac1609_4 	ReceivedBroadcasts 	0
scalar RSUExampleScenario.node[0].nic.mac1609_4 	SentPackets 	1
scalar RSUExampleScenario.node[0].nic.mac1609_4 	SNIRLostPackets 	1
scalar RSUExampleScenario.node[0].nic.mac1609_4 	RXTXLostPackets 	0
scalar RSUExampleScenario.node[0].nic.mac1609_4 	TotalLostPackets 	1
scalar RSUExampleScenario.node[0].nic.mac1609_4 	DroppedPacketsInMac 	0
scalar RSUExampleScenario.node[0].nic.mac1609_4 	TooLittleTime 	0
scalar RSUExampleScenario.node[0].nic.mac1609_4 	TimesIntoBackoff 	1
scalar RSUExampleScenario.node[0].nic.mac1609_4 	SlotsBackoff 	3
scalar RSUExampleScenario.node[0].nic.mac1609_4 	NumInternalContention 	0
scalar RSUExampleScenario.node[0].nic.mac1609_4 	totalBusyTime 	0.000193
scalar RSUExampleScenario.node[0].veinsmobility 	startTime 	1
scalar RSUExampleScenario.node[0].veinsmobility 	totalTime 	328
scalar RSUExampleScenario.node[0].veinsmobility 	stopTime 	330
scalar RSUExampleScenario.node[0].veinsmobility 	minSpeed 	0
scalar RSUExampleScenario.node[0].veinsmobility 	maxSpeed 	27.768710480146
scalar RSUExampleScenario.node[0].veinsmobility 	totalDistance 	3394.142473836
scalar RSUExampleScenario.node[0].veinsmobility 	totalCO2Emission 	946.28496719652
scalar RSUExampleScenario.node[1].nic.phy80211p 	busyTime 	4.7342465753425e-06
scalar RSUExampleScenario.node[1].nic.mac1609_4 	ReceivedUnicastPackets 	0
scalar RSUExampleScenario.node[1].nic.mac1609_4 	ReceivedBroadcasts 	16
scalar RSUExampleScenario.node[1].nic.mac1609_4 	SentPackets 	1
scalar RSUExampleScenario.node[1].nic.mac1609_4 	SNIRLostPackets 	2
scalar RSUExampleScenario.node[1].nic.mac1609_4 	RXTXLostPackets 	0
scalar RSUExampleScenario.node[1].nic.mac1609_4 	TotalLostPackets 	2
scalar RSUExampleScenario.node[1].nic.mac1609_4 	DroppedPacketsInMac 	0
scalar RSUExampleScenario.node[1].nic.mac1609_4 	TooLittleTime 	0
scalar RSUExampleScenario.node[1].nic.mac1609_4 	TimesIntoBackoff 	2
scalar RSUExampleScenario.node[1].nic.mac1609_4 	SlotsBackoff 	10
scalar RSUExampleScenario.node[1].nic.mac1609_4 	NumInternalContention 	0
scalar RSUExampleScenario.node[1].nic.mac1609_4 	totalBusyTime 	0.001729
scalar RSUExampleScenario.node[1].veinsmobility 	startTime 	3
scalar RSUExampleScenario.node[1].veinsmobility 	totalTime 	364
scalar RSUExampleScenario.node[1].veinsmobility 	stopTime 	368
scalar RSUExampleScenario.node[1].veinsmobility 	minSpeed 	0
scalar RSUExampleScenario.node[1].veinsmobility 	maxSpeed 	27.778188040318
scalar RSUExampleScenario.node[1].veinsmobility 	totalDistance 	3395.9579600597
scalar RSUExampleScenario.node[1].veinsmobility 	totalCO2Emission 	858.11318656406
scalar RSUExampleScenario.node[5].nic.phy80211p 	busyTime 	4.5714285714286e-06
scalar RSUExampleScenario.node[5].nic.mac1609_4 	ReceivedUnicastPackets 	0
scalar RSUExampleScenario.node[5].nic.mac1609_4 	ReceivedBroadcasts 	15
scalar RSUExampleScenario.node[5].nic.mac1609_4 	SentPackets 	1
scalar RSUExampleScenario.node[5].nic.mac1609_4 	SNIRLostPackets 	4
scalar RSUExampleScenario.node[5].nic.mac1609_4 	RXTXLostPackets 	0
scalar RSUExampleScenario.node[5].nic.mac1609_4 	TotalLostPackets 	4
scalar RSUExampleScenario.node[5].nic.mac1609_4 	DroppedPacketsInMac 	0
scalar RSUExampleScenario.node[5].nic.mac1609_4 	TooLittleTime 	0
scalar RSUExampleScenario.node[5].nic.mac1609_4 	TimesIntoBackoff 	1
scalar RSUExampleScenario.node[5].nic.mac1609_4 	SlotsBackoff 	2
scalar RSUExampleScenario.node[5].nic.mac1609_4 	NumInternalContention 	0
scalar RSUExampleScenario.node[5].nic.mac1609_4 	totalBusyTime 	0.001729
scalar RSUExampleScenario.node[5].veinsmobility 	startTime 	10
scalar RSUExampleScenario.node[5].veinsmobility 	totalTime 	398
scalar RSUExampleScenario.node[5].veinsmobility 	stopTime 	409
scalar RSUExampleScenario.node[5].veinsmobility 	minSpeed 	0
scalar RSUExampleScenario.node[5].veinsmobility 	maxSpeed 	27.763528873604
scalar RSUExampleScenario.node[5].veinsmobility 	totalDistance 	3392.2277078383
scalar RSUExampleScenario.node[5].veinsmobility 	totalCO2Emission 	940.54571514137
scalar RSUExampleScenario.node[2].nic.phy80211p 	busyTime 	4.2457002457002e-06
scalar RSUExampleScenario.node[2].nic.mac1609_4 	ReceivedUnicastPackets 	0
scalar RSUExampleScenario.node[2].nic.mac1609_4 	ReceivedBroadcasts 	16
scalar RSUExampleScenario.node[2].nic.mac1609_4 	SentPackets 	1
scalar RSUExampleScenario.node[2].nic.mac1609_4 	SNIRLostPackets 	2
scalar RSUExampleScenario.node[2].nic.mac1609_4 	RXTXLostPackets 	0
scalar RSUExampleScenario.node[2].nic.mac1609_4 	TotalLostPackets 	2
scalar RSUExampleScenario.node[2].nic.mac1609_4 	DroppedPacketsInMac 	0
scalar RSUExampleScenario.node[2].nic.mac1609_4 	TooLittleTime 	0
scalar RSUExampleScenario.node[2].nic.mac1609_4 	TimesIntoBackoff 	1
scalar RSUExampleScenario.node[2].nic.mac1609_4 	SlotsBackoff 	4
scalar RSUExampleScenario.node[2].nic.mac1609_4 	NumInternalContention 	0
scalar RSUExampleScenario.node[2].nic.mac1609_4 	totalBusyTime 	0.001729
scalar RSUExampleScenario.node[2].veinsmobility 	startTime 	5
scalar RSUExampleScenario.node[2].veinsmobility 	totalTime 	406
scalar RSUExampleScenario.node[2].veinsmobility 	stopTime 	412
scalar RSUExampleScenario.node[2].veinsmobility 	minSpeed 	0
scalar RSUExampleScenario.node[2].veinsmobility 	maxSpeed 	27.777677725879
scalar RSUExampleScenario.node[2].veinsmobility 	totalDistance 	3400.72494113
scalar RSUExampleScenario.node[2].veinsmobility 	totalCO2Emission 	1026.3002016061
scalar RSUExampleScenario.node[3].nic.phy80211p 	busyTime 	4.056338028169e-06
scalar RSUExampleScenario.node[3].nic.mac1609_4 	ReceivedUnicastPackets 	0
scalar RSUExampleScenario.node[3].nic.mac1609_4 	ReceivedBroadcasts 	16
scalar RSUExampleScenario.node[3].nic.mac1609_4 	SentPackets 	1
scalar RSUExampleScenario.node[3].nic.mac1609_4 	SNIRLostPackets 	2
scalar RSUExampleScenario.node[3].nic.mac1609_4 	RXTXLostPackets 	0
scalar RSUExampleScenario.node[3].nic.mac1609_4 	TotalLostPackets 	2
scalar RSUExampleScenario.node[3].nic.mac1609_4 	DroppedPacketsInMac 	0
scalar RSUExampleScenario.node[3].nic.mac1609_4 	TooLittleTime 	0
scalar RSUExampleScenario.node[3].nic.mac1609_4 	TimesIntoBackoff 	1
scalar RSUExampleScenario.node[3].nic.mac1609_4 	SlotsBackoff 	1
scalar RSUExampleScenario.node[3].nic.mac1609_4 	NumInternalContention 	0
scalar RSUExampleScenario.node[3].nic.mac1609_4 	totalBusyTime 	0.001729
scalar RSUExampleScenario.node[3].veinsmobility 	startTime 	7
scalar RSUExampleScenario.node[3].veinsmobility 	totalTime 	425
scalar RSUExampleScenario.node[3].veinsmobility 	stopTime 	433
scalar RSUExampleScenario.node[3].veinsmobility 	minSpeed 	0
scalar RSUExampleScenario.node[3].veinsmobility 	maxSpeed 	27.750909077181
scalar RSUExampleScenario.node[3].veinsmobility 	totalDistance 	3395.9625912497
scalar RSUExampleScenario.node[3].veinsmobility 	totalCO2Emission 	1006.7856760232
scalar RSUExampleScenario.node[4].nic.phy80211p 	busyTime 	3.6844349680171e-06
scalar RSUExampleScenario.node[4].nic.mac1609_4 	ReceivedUnicastPackets 	0
scalar RSUExampleScenario.node[4].nic.mac1609_4 	ReceivedBroadcasts 	16
scalar RSUExampleScenario.node[4].nic.mac1609_4 	SentPackets 	1
scalar RSUExampleScenario.node[4].nic.mac1609_4 	SNIRLostPackets 	2
scalar RSUExampleScenario.node[4].nic.mac1609_4 	RXTXLostPackets 	0
scalar RSUExampleScenario.node[4].nic.mac1609_4 	TotalLostPackets 	2
scalar RSUExampleScenario.node[4].nic.mac1609_4 	DroppedPacketsInMac 	0
scalar RSUExampleScenario.node[4].nic.mac1609_4 	TooLittleTime 	0
scalar RSUExampleScenario.node[4].nic.mac1609_4 	TimesIntoBackoff 	2
scalar RSUExampleScenario.node[4].nic.mac1609_4 	SlotsBackoff 	8
scalar RSUExampleScenario.node[4].nic.mac1609_4 	NumInternalContention 	0
scalar RSUExampleScenario.node[4].nic.mac1609_4 	totalBusyTime 	0.001729
scalar RSUExampleScenario.node[4].veinsmobility 	startTime 	8
scalar RSUExampleScenario.node[4].veinsmobility 	totalTime 	468
scalar RSUExampleScenario.node[4].veinsmobility 	stopTime 	477
scalar RSUExampleScenario.node[4].veinsmobility 	minSpeed 	0
scalar RSUExampleScenario.node[4].veinsmobility 	maxSpeed 	27.75182667057
scalar RSUExampleScenario.node[4].veinsmobility 	totalDistance 	3394.1442359651
scalar RSUExampleScenario.node[4].veinsmobility 	totalCO2Emission 	1124.771087189
scalar RSUExampleScenario.node[9].nic.phy80211p 	busyTime 	3.894523326572e-06
scalar RSUExampleScenario.node[9].nic.mac1609_4 	ReceivedUnicastPackets 	0
scalar RSUExampleScenario.node[9].nic.mac1609_4 	ReceivedBroadcasts 	16
scalar RSUExampleScenario.node[9].nic.mac1609_4 	SentPackets 	1
scalar RSUExampleScenario.node[9].nic.mac1609_4 	SNIRLostPackets 	4
scalar RSUExampleScenario.node[9].nic.mac1609_4 	RXTXLostPackets 	0
scalar RSUExampleScenario.node[9].nic.mac1609_4 	TotalLostPackets 	4
scalar RSUExampleScenario.node[9].nic.mac1609_4 	DroppedPacketsInMac 	0
scalar RSUExampleScenario.node[9].nic.mac1609_4 	TooLittleTime 	0
scalar RSUExampleScenario.node[9].nic.mac1609_4 	TimesIntoBackoff 	2
scalar RSUExampleScenario.node[9].nic.mac1609_4 	SlotsBackoff 	3
scalar RSUExampleScenario.node[9].nic.mac1609_4 	NumInternalContention 	0
scalar RSUExampleScenario.node[9].nic.mac1609_4 	totalBusyTime 	0.001825
scalar RSUExampleScenario.node[9].veinsmobility 	startTime 	17
scalar RSUExampleScenario.node[9].veinsmobility 	totalTime 	492
scalar RSUExampleScenario.node[9].veinsmobility 	stopTime 	510
scalar RSUExampleScenario.node[9].veinsmobility 	minSpeed 	0
scalar RSUExampleScenario.node[9].veinsmobility 	maxSpeed 	27.771861459516
scalar RSUExampleScenario.node[9].veinsmobility 	totalDistance 	3406.5971755644
scalar RSUExampleScenario.node[9].veinsmobility 	totalCO2Emission 	1089.9968740096
scalar RSUExampleScenario.node[6].nic.phy80211p 	busyTime 	3.7944664031621e-06
scalar RSUExampleScenario.node[6].nic.mac1609_4 	ReceivedUnicastPackets 	0
scalar RSUExampleScenario.node[6].nic.mac1609_4 	ReceivedBroadcasts 	16
scalar RSUExampleScenario.node[6].nic.mac1609_4 	SentPackets 	1
scalar RSUExampleScenario.node[6].nic.mac1609_4 	SNIRLostPackets 	4
scalar RSUExampleScenario.node[6].nic.mac1609_4 	RXTXLostPackets 	0
scalar RSUExampleScenario.node[6].nic.mac1609_4 	TotalLostPackets 	4
scalar RSUExampleScenario.node[6].nic.mac1609_4 	DroppedPacketsInMac 	0
scalar RSUExampleScenario.node[6].nic.mac1609_4 	TooLittleTime 	0
scalar RSUExampleScenario.node[6].nic.mac1609_4 	TimesIntoBackoff 	2
scalar RSUExampleScenario.node[6].nic.mac1609_4 	SlotsBackoff 	10
scalar RSUExampleScenario.node[6].nic.mac1609_4 	NumInternalContention 	0
scalar RSUExampleScenario.node[6].nic.mac1609_4 	totalBusyTime 	0.001825
scalar RSUExampleScenario.node[6].veinsmobility 	startTime 	12
scalar RSUExampleScenario.node[6].veinsmobility 	totalTime 	505
scalar RSUExampleScenario.node[6].veinsmobility 	stopTime 	518
scalar RSUExampleScenario.node[6].veinsmobility 	minSpeed 	0
scalar RSUExampleScenario.node[6].veinsmobility 	maxSpeed 	27.779343798762
scalar RSUExampleScenario.node[6].veinsmobility 	totalDistance 	3391.4523561977
scalar RSUExampleScenario.node[6].veinsmobility 	totalCO2Emission 	995.05992132621
scalar RSUExampleScenario.node[7].nic.phy80211p 	busyTime 	3.7944664031621e-06
scalar RSUExampleScenario.node[7].nic.mac1609_4 	ReceivedUnicastPackets 	0
scalar RSUExampleScenario.node[7].nic.mac1609_4 	ReceivedBroadcasts 	16
scalar RSUExampleScenario.node[7].nic.mac1609_4 	SentPackets 	1
scalar RSUExampleScenario.node[7].nic.mac1609_4 	SNIRLostPackets 	4
scalar RSUExampleScenario.node[7].nic.mac1609_4 	RXTXLostPackets 	0
scalar RSUExampleScenario.node[7].nic.mac1609_4 	TotalLostPackets 	4
scalar RSUExampleScenario.node[7].nic.mac1609_4 	DroppedPacketsInMac 	0
scalar RSUExampleScenario.node[7].nic.mac1609_4 	TooLittleTime 	0
scalar RSUExampleScenario.node[7].nic.mac1609_4 	TimesIntoBackoff 	2
scalar RSUExampleScenario.node[7].nic.mac1609_4 	SlotsBackoff 	2
scalar RSUExampleScenario.node[7].nic.mac1609_4 	NumInternalContention 	0
scalar RSUExampleScenario.node[7].nic.mac1609_4 	totalBusyTime 	0.001825
scalar RSUExampleScenario.node[7].veinsmobility 	startTime 	14
scalar RSUExampleScenario.node[7].veinsmobility 	totalTime 	505
scalar RSUExampleScenario.node[7].veinsmobility 	stopTime 	520
scalar RSUExampleScenario.node[7].veinsmobility 	minSpeed 	0
scalar RSUExampleScenario.node[7].veinsmobility 	maxSpeed 	27.737601034408
scalar RSUExampleScenario.node[7].veinsmobility 	totalDistance 	3398.1065282104
scalar RSUExampleScenario.node[7].veinsmobility 	totalCO2Emission 	1071.2279455809
scalar RSUExampleScenario.node[12].nic.phy80211p 	busyTime 	3.9476635514019e-06
scalar RSUExampleScenario.node[12].nic.mac1609_4 	ReceivedUnicastPackets 	0
scalar RSUExampleScenario.node[12].nic.mac1609_4 	ReceivedBroadcasts 	16
scalar RSUExampleScenario.node[12].nic.mac1609_4 	SentPackets 	1
scalar RSUExampleScenario.node[12].nic.mac1609_4 	SNIRLostPackets 	6
scalar RSUExampleScenario.node[12].nic.mac1609_4 	RXTXLostPackets 	1
scalar RSUExampleScenario.node[12].nic.mac1609_4 	TotalLostPackets 	7
scalar RSUExampleScenario.node[12].nic.mac1609_4 	DroppedPacketsInMac 	0
scalar RSUExampleScenario.node[12].nic.mac1609_4 	TooLittleTime 	0
scalar RSUExampleScenario.node[12].nic.mac1609_4 	TimesIntoBackoff 	1
scalar RSUExampleScenario.node[12].nic.mac1609_4 	SlotsBackoff 	3
scalar RSUExampleScenario.node[12].nic.mac1609_4 	NumInternalContention 	0
scalar RSUExampleScenario.node[12].nic.mac1609_4 	totalBusyTime 	0.001921
scalar RSUExampleScenario.node[12].veinsmobility 	startTime 	23
scalar RSUExampleScenario.node[12].veinsmobility 	totalTime 	534
scalar RSUExampleScenario.node[12].veinsmobility 	stopTime 	558
scalar RSUExampleScenario.node[12].veinsmobility 	minSpeed 	0
scalar RSUExampleScenario.node[12].veinsmobility 	maxSpeed 	27.772976816192
scalar RSUExampleScenario.node[12].veinsmobility 	totalDistance 	3389.5085839329
scalar RSUExampleScenario.node[12].veinsmobility 	totalCO2Emission 	1041.0122690524
scalar RSUExampleScenario.node[8].nic.phy80211p 	busyTime 	3.5294117647059e-06
scalar RSUExampleScenario.node[8].nic.mac1609_4 	ReceivedUnicastPackets 	0
scalar RSUExampleScenario.node[8].nic.mac1609_4 	ReceivedBroadcasts 	16
scalar RSUExampleScenario.node[8].nic.mac1609_4 	SentPackets 	1
scalar RSUExampleScenario.node[8].nic.mac1609_4 	SNIRLostPackets 	4
scalar RSUExampleScenario.node[8].nic.mac1609_4 	RXTXLostPackets 	0
scalar RSUExampleScenario.node[8].nic.mac1609_4 	TotalLostPackets 	4
scalar RSUExampleScenario.node[8].nic.mac1609_4 	DroppedPacketsInMac 	0
scalar RSUExampleScenario.node[8].nic.mac1609_4 	TooLittleTime 	0
scalar RSUExampleScenario.node[8].nic.mac1609_4 	TimesIntoBackoff 	2
scalar RSUExampleScenario.node[8].nic.mac1609_4 	SlotsBackoff 	6
scalar RSUExampleScenario.node[8].nic.mac1609_4 	NumInternalContention 	0
scalar RSUExampleScenario.node[8].nic.mac1609_4 	totalBusyTime 	0.001825
scalar RSUExampleScenario.node[8].veinsmobility 	startTime 	16
scalar RSUExampleScenario.node[8].veinsmobility 	totalTime 	543
scalar RSUExampleScenario.node[8].veinsmobility 	stopTime 	560
scalar RSUExampleScenario.node[8].veinsmobility 	minSpeed 	0
scalar RSUExampleScenario.node[8].veinsmobility 	maxSpeed 	27.773561144182
scalar RSUExampleScenario.node[8].veinsmobility 	totalDistance 	3390.1977380861
scalar RSUExampleScenario.node[8].veinsmobility 	totalCO2Emission 	1151.4417559478
scalar RSUExampleScenario.node[11].nic.phy80211p 	busyTime 	3.7127071823204e-06
scalar RSUExampleScenario.node[11].nic.mac1609_4 	ReceivedUnicastPackets 	0
scalar RSUExampleScenario.node[11].nic.mac1609_4 	ReceivedBroadcasts 	15
scalar RSUExampleScenario.node[11].nic.mac1609_4 	SentPackets 	1
scalar RSUExampleScenario.node[11].nic.mac1609_4 	SNIRLostPackets 	6
scalar RSUExampleScenario.node[11].nic.mac1609_4 	RXTXLostPackets 	0
scalar RSUExampleScenario.node[11].nic.mac1609_4 	TotalLostPackets 	6
scalar RSUExampleScenario.node[11].nic.mac1609_4 	DroppedPacketsInMac 	0
scalar RSUExampleScenario.node[11].nic.mac1609_4 	TooLittleTime 	0
scalar RSUExampleScenario.node[11].nic.mac1609_4 	TimesIntoBackoff 	2
scalar RSUExampleScenario.node[11].nic.mac1609_4 	SlotsBackoff 	10
scalar RSUExampleScenario.node[11].nic.mac1609_4 	NumInternalContention 	0
scalar RSUExampleScenario.node[11].nic.mac1609_4 	totalBusyTime 	0.001825
scalar RSUExampleScenario.node[11].veinsmobility 	startTime 	20
scalar RSUExampleScenario.node[11].veinsmobility 	totalTime 	542
scalar RSUExampleScenario.node[11].veinsmobility 	stopTime 	563
scalar RSUExampleScenario.node[11].veinsmobility 	minSpeed 	0
scalar RSUExampleScenario.node[11].veinsmobility 	maxSpeed 	27.749026262658
scalar RSUExampleScenario.node[11].veinsmobility 	totalDistance 	3397.5854963861
scalar RSUExampleScenario.node[11].veinsmobility 	totalCO2Emission 	1272.7295222277
scalar RSUExampleScenario.node[10].nic.phy80211p 	busyTime 	3.6923076923077e-06
scalar RSUExampleScenario.node[10].nic.mac1609_4 	ReceivedUnicastPackets 	0
scalar RSUExampleScenario.node[10].nic.mac1609_4 	ReceivedBroadcasts 	15
scalar RSUExampleScenario.node[10].nic.mac1609_4 	SentPackets 	1
scalar RSUExampleScenario.node[10].nic.mac1609_4 	SNIRLostPackets 	6
scalar RSUExampleScenario.node[10].nic.mac1609_4 	RXTXLostPackets 	0
scalar RSUExampleScenario.node[10].nic.mac1609_4 	TotalLostPackets 	6
scalar RSUExampleScenario.node[10].nic.mac1609_4 	DroppedPacketsInMac 	0
scalar RSUExampleScenario.node[10].nic.mac1609_4 	TooLittleTime 	0
scalar RSUExampleScenario.node[10].nic.mac1609_4 	TimesIntoBackoff 	2
scalar RSUExampleScenario.node[10].nic.mac1609_4 	SlotsBackoff 	10
scalar RSUExampleScenario.node[10].nic.mac1609_4 	NumInternalContention 	0
scalar RSUExampleScenario.node[10].nic.mac1609_4 	totalBusyTime 	0.001825
scalar RSUExampleScenario.node[10].veinsmobility 	startTime 	19
scalar RSUExampleScenario.node[10].veinsmobility 	totalTime 	545
scalar RSUExampleScenario.node[10].veinsmobility 	stopTime 	565
scalar RSUExampleScenario.node[10].veinsmobility 	minSpeed 	0
scalar RSUExampleScenario.node[10].veinsmobility 	maxSpeed 	27.751222434836
scalar RSUExampleScenario.node[10].veinsmobility 	totalDistance 	3394.4118744422
scalar RSUExampleScenario.node[10].veinsmobility 	totalCO2Emission 	1198.6705286717
scalar RSUExampleScenario.node[15].nic.phy80211p 	busyTime 	4.808905380334e-06
scalar RSUExampleScenario.node[15].nic.mac1609_4 	ReceivedUnicastPackets 	0
scalar RSUExampleScenario.node[15].nic.mac1609_4 	ReceivedBroadcasts 	18
scalar RSUExampleScenario.node[15].nic.mac1609_4 	SentPackets 	1
scalar RSUExampleScenario.node[15].nic.mac1609_4 	SNIRLostPackets 	9
scalar RSUExampleScenario.node[15].nic.mac1609_4 	RXTXLostPackets 	0
scalar RSUExampleScenario.node[15].nic.mac1609_4 	TotalLostPackets 	9
scalar RSUExampleScenario.node[15].nic.mac1609_4 	DroppedPacketsInMac 	0
scalar RSUExampleScenario.node[15].nic.mac1609_4 	TooLittleTime 	0
scalar RSUExampleScenario.node[15].nic.mac1609_4 	TimesIntoBackoff 	1
scalar RSUExampleScenario.node[15].nic.mac1609_4 	SlotsBackoff 	3
scalar RSUExampleScenario.node[15].nic.mac1609_4 	NumInternalContention 	0
scalar RSUExampleScenario.node[15].nic.mac1609_4 	totalBusyTime 	0.002209
scalar RSUExampleScenario.node[15].veinsmobility 	startTime 	28
scalar RSUExampleScenario.node[15].veinsmobility 	totalTime 	538
scalar RSUExampleScenario.node[15].veinsmobility 	stopTime 	567
scalar RSUExampleScenario.node[15].veinsmobility 	minSpeed 	0
scalar RSUExampleScenario.node[15].veinsmobility 	maxSpeed 	27.750359571008
scalar RSUExampleScenario.node[15].veinsmobility 	totalDistance 	3400.4420391561
scalar RSUExampleScenario.node[15].veinsmobility 	totalCO2Emission 	1192.0721210684
scalar RSUExampleScenario.node[13].nic.phy80211p 	busyTime 	4.2275229357798e-06
scalar RSUExampleScenario.node[13].nic.mac1609_4 	ReceivedUnicastPackets 	0
scalar RSUExampleScenario.node[13].nic.mac1609_4 	ReceivedBroadcasts 	16
scalar RSUExampleScenario.node[13].nic.mac1609_4 	SentPackets 	1
scalar RSUExampleScenario.node[13].nic.mac1609_4 	SNIRLostPackets 	8
scalar RSUExampleScenario.node[13].nic.mac1609_4 	RXTXLostPackets 	0
scalar RSUExampleScenario.node[13].nic.mac1609_4 	TotalLostPackets 	8
scalar RSUExampleScenario.node[13].nic.mac1609_4 	DroppedPacketsInMac 	0
scalar RSUExampleScenario.node[13].nic.mac1609_4 	TooLittleTime 	0
scalar RSUExampleScenario.node[13].nic.mac1609_4 	TimesIntoBackoff 	1
scalar RSUExampleScenario.node[13].nic.mac1609_4 	SlotsBackoff 	2
scalar RSUExampleScenario.node[13].nic.mac1609_4 	NumInternalContention 	0
scalar RSUExampleScenario.node[13].nic.mac1609_4 	totalBusyTime 	0.002017021343
scalar RSUExampleScenario.node[13].veinsmobility 	startTime 	25
scalar RSUExampleScenario.node[13].veinsmobility 	totalTime 	544
scalar RSUExampleScenario.node[13].veinsmobility 	stopTime 	570
scalar RSUExampleScenario.node[13].veinsmobility 	minSpeed 	0
scalar RSUExampleScenario.node[13].veinsmobility 	maxSpeed 	27.763474684097
scalar RSUExampleScenario.node[13].veinsmobility 	totalDistance 	3402.0154709696
scalar RSUExampleScenario.node[13].veinsmobility 	totalCO2Emission 	1188.7031800496
scalar RSUExampleScenario.node[16].nic.phy80211p 	busyTime 	4.7822878228782e-06
scalar RSUExampleScenario.node[16].nic.mac1609_4 	ReceivedUnicastPackets 	0
scalar RSUExampleScenario.node[16].nic.mac1609_4 	ReceivedBroadcasts 	19
scalar RSUExampleScenario.node[16].nic.mac1609_4 	SentPackets 	1
scalar RSUExampleScenario.node[16].nic.mac1609_4 	SNIRLostPackets 	8
scalar RSUExampleScenario.node[16].nic.mac1609_4 	RXTXLostPackets 	2
scalar RSUExampleScenario.node[16].nic.mac1609_4 	TotalLostPackets 	10
scalar RSUExampleScenario.node[16].nic.mac1609_4 	DroppedPacketsInMac 	0
scalar RSUExampleScenario.node[16].nic.mac1609_4 	TooLittleTime 	0
scalar RSUExampleScenario.node[16].nic.mac1609_4 	TimesIntoBackoff 	1
scalar RSUExampleScenario.node[16].nic.mac1609_4 	SlotsBackoff 	5
scalar RSUExampleScenario.node[16].nic.mac1609_4 	NumInternalContention 	0
scalar RSUExampleScenario.node[16].nic.mac1609_4 	totalBusyTime 	0.002305
scalar RSUExampleScenario.node[16].veinsmobility 	startTime 	30
scalar RSUExampleScenario.node[16].veinsmobility 	totalTime 	541
scalar RSUExampleScenario.node[16].veinsmobility 	stopTime 	572
scalar RSUExampleScenario.node[16].veinsmobility 	minSpeed 	0
scalar RSUExampleScenario.node[16].veinsmobility 	maxSpeed 	27.715720625184
scalar RSUExampleScenario.node[16].veinsmobility 	totalDistance 	3396.0863673223
scalar RSUExampleScenario.node[16].veinsmobility 	totalCO2Emission 	1301.7911477852
scalar RSUExampleScenario.node[18].nic.phy80211p 	busyTime 	5.3234750462107e-06
scalar RSUExampleScenario.node[18].nic.mac1609_4 	ReceivedUnicastPackets 	0
scalar RSUExampleScenario.node[18].nic.mac1609_4 	ReceivedBroadcasts 	18
scalar RSUExampleScenario.node[18].nic.mac1609_4 	SentPackets 	1
scalar RSUExampleScenario.node[18].nic.mac1609_4 	SNIRLostPackets 	12
scalar RSUExampleScenario.node[18].nic.mac1609_4 	RXTXLostPackets 	0
scalar RSUExampleScenario.node[18].nic.mac1609_4 	TotalLostPackets 	12
scalar RSUExampleScenario.node[18].nic.mac1609_4 	DroppedPacketsInMac 	0
scalar RSUExampleScenario.node[18].nic.mac1609_4 	TooLittleTime 	0
scalar RSUExampleScenario.node[18].nic.mac1609_4 	TimesIntoBackoff 	1
scalar RSUExampleScenario.node[18].nic.mac1609_4 	SlotsBackoff 	6
scalar RSUExampleScenario.node[18].nic.mac1609_4 	NumInternalContention 	0
scalar RSUExampleScenario.node[18].nic.mac1609_4 	totalBusyTime 	0.002401
scalar RSUExampleScenario.node[18].veinsmobility 	startTime 	33
scalar RSUExampleScenario.node[18].veinsmobility 	totalTime 	540
scalar RSUExampleScenario.node[18].veinsmobility 	stopTime 	574
scalar RSUExampleScenario.node[18].veinsmobility 	minSpeed 	0
scalar RSUExampleScenario.node[18].veinsmobility 	maxSpeed 	27.712539756373
scalar RSUExampleScenario.node[18].veinsmobility 	totalDistance 	3392.9270062613
scalar RSUExampleScenario.node[18].veinsmobility 	totalCO2Emission 	1268.8203383851
scalar RSUExampleScenario.node[19].nic.phy80211p 	busyTime 	5.3038674033149e-06
scalar RSUExampleScenario.node[19].nic.mac1609_4 	ReceivedUnicastPackets 	0
scalar RSUExampleScenario.node[19].nic.mac1609_4 	ReceivedBroadcasts 	15
scalar RSUExampleScenario.node[19].nic.mac1609_4 	SentPackets 	1
scalar RSUExampleScenario.node[19].nic.mac1609_4 	SNIRLostPackets 	15
scalar RSUExampleScenario.node[19].nic.mac1609_4 	RXTXLostPackets 	1
scalar RSUExampleScenario.node[19].nic.mac1609_4 	TotalLostPackets 	16
scalar RSUExampleScenario.node[19].nic.mac1609_4 	DroppedPacketsInMac 	0
scalar RSUExampleScenario.node[19].nic.mac1609_4 	TooLittleTime 	0
scalar RSUExampleScenario.node[19].nic.mac1609_4 	TimesIntoBackoff 	1
scalar RSUExampleScenario.node[19].nic.mac1609_4 	SlotsBackoff 	0
scalar RSUExampleScenario.node[19].nic.mac1609_4 	NumInternalContention 	0
scalar RSUExampleScenario.node[19].nic.mac1609_4 	totalBusyTime 	0.002305
scalar RSUExampleScenario.node[19].veinsmobility 	startTime 	34
scalar RSUExampleScenario.node[19].veinsmobility 	totalTime 	542
scalar RSUExampleScenario.node[19].veinsmobility 	stopTime 	577
scalar RSUExampleScenario.node[19].veinsmobility 	minSpeed 	0
scalar RSUExampleScenario.node[19].veinsmobility 	maxSpeed 	27.754203486498
scalar RSUExampleScenario.node[19].veinsmobility 	totalDistance 	3400.25456084
scalar RSUExampleScenario.node[19].veinsmobility 	totalCO2Emission 	1201.0698388355
scalar RSUExampleScenario.node[14].nic.phy80211p 	busyTime 	4.5217391304348e-06
scalar RSUExampleScenario.node[14].nic.mac1609_4 	ReceivedUnicastPackets 	0
scalar RSUExampleScenario.node[14].nic.mac1609_4 	ReceivedBroadcasts 	17
scalar RSUExampleScenario.node[14].nic.mac1609_4 	SentPackets 	1
scalar RSUExampleScenario.node[14].nic.mac1609_4 	SNIRLostPackets 	9
scalar RSUExampleScenario.node[14].nic.mac1609_4 	RXTXLostPackets 	0
scalar RSUExampleScenario.node[14].nic.mac1609_4 	TotalLostPackets 	9
scalar RSUExampleScenario.node[14].nic.mac1609_4 	DroppedPacketsInMac 	0
scalar RSUExampleScenario.node[14].nic.mac1609_4 	TooLittleTime 	0
scalar RSUExampleScenario.node[14].nic.mac1609_4 	TimesIntoBackoff 	1
scalar RSUExampleScenario.node[14].nic.mac1609_4 	SlotsBackoff 	0
scalar RSUExampleScenario.node[14].nic.mac1609_4 	NumInternalContention 	0
scalar RSUExampleScenario.node[14].nic.mac1609_4 	totalBusyTime 	0.002113
scalar RSUExampleScenario.node[14].veinsmobility 	startTime 	27
scalar RSUExampleScenario.node[14].veinsmobility 	totalTime 	551
scalar RSUExampleScenario.node[14].veinsmobility 	stopTime 	579
scalar RSUExampleScenario.node[14].veinsmobility 	minSpeed 	0
scalar RSUExampleScenario.node[14].veinsmobility 	maxSpeed 	27.770110275866
scalar RSUExampleScenario.node[14].veinsmobility 	totalDistance 	3397.6625828613
scalar RSUExampleScenario.node[14].veinsmobility 	totalCO2Emission 	1143.3215040067
scalar RSUExampleScenario.node[17].nic.phy80211p 	busyTime 	4.695652173913e-06
scalar RSUExampleScenario.node[17].nic.mac1609_4 	ReceivedUnicastPackets 	0
scalar RSUExampleScenario.node[17].nic.mac1609_4 	ReceivedBroadcasts 	19
scalar RSUExampleScenario.node[17].nic.mac1609_4 	SentPackets 	1
scalar RSUExampleScenario.node[17].nic.mac1609_4 	SNIRLostPackets 	8
scalar RSUExampleScenario.node[17].nic.mac1609_4 	RXTXLostPackets 	2
scalar RSUExampleScenario.node[17].nic.mac1609_4 	TotalLostPackets 	10
scalar RSUExampleScenario.node[17].nic.mac1609_4 	DroppedPacketsInMac 	0
scalar RSUExampleScenario.node[17].nic.mac1609_4 	TooLittleTime 	0
scalar RSUExampleScenario.node[17].nic.mac1609_4 	TimesIntoBackoff 	1
scalar RSUExampleScenario.node[17].nic.mac1609_4 	SlotsBackoff 	6
scalar RSUExampleScenario.node[17].nic.mac1609_4 	NumInternalContention 	0
scalar RSUExampleScenario.node[17].nic.mac1609_4 	totalBusyTime 	0.002305
scalar RSUExampleScenario.node[17].veinsmobility 	startTime 	31
scalar RSUExampleScenario.node[17].veinsmobility 	totalTime 	551
scalar RSUExampleScenario.node[17].veinsmobility 	stopTime 	583
scalar RSUExampleScenario.node[17].veinsmobility 	minSpeed 	0
scalar RSUExampleScenario.node[17].veinsmobility 	maxSpeed 	27.749793710625
scalar RSUExampleScenario.node[17].veinsmobility 	totalDistance 	3404.0536337407
scalar RSUExampleScenario.node[17].veinsmobility 	totalCO2Emission 	1250.1174115005
scalar RSUExampleScenario.node[53].nic.phy80211p 	busyTime 	4.8466019417476e-06
scalar RSUExampleScenario.node[53].nic.mac1609_4 	ReceivedUnicastPackets 	0
scalar RSUExampleScenario.node[53].nic.mac1609_4 	ReceivedBroadcasts 	18
scalar RSUExampleScenario.node[53].nic.mac1609_4 	SentPackets 	1
scalar RSUExampleScenario.node[53].nic.mac1609_4 	SNIRLostPackets 	8
scalar RSUExampleScenario.node[53].nic.mac1609_4 	RXTXLostPackets 	0
scalar RSUExampleScenario.node[53].nic.mac1609_4 	TotalLostPackets 	8
scalar RSUExampleScenario.node[53].nic.mac1609_4 	DroppedPacketsInMac 	0
scalar RSUExampleScenario.node[53].nic.mac1609_4 	TooLittleTime 	0
scalar RSUExampleScenario.node[53].nic.mac1609_4 	TimesIntoBackoff 	2
scalar RSUExampleScenario.node[53].nic.mac1609_4 	SlotsBackoff 	1
scalar RSUExampleScenario.node[53].nic.mac1609_4 	NumInternalContention 	0
scalar RSUExampleScenario.node[53].nic.mac1609_4 	totalBusyTime 	0.002113
scalar RSUExampleScenario.node[53].veinsmobility 	startTime 	106
scalar RSUExampleScenario.node[53].veinsmobility 	totalTime 	514
scalar RSUExampleScenario.node[53].veinsmobility 	stopTime 	621
scalar RSUExampleScenario.node[53].veinsmobility 	minSpeed 	0
scalar RSUExampleScenario.node[53].veinsmobility 	maxSpeed 	27.777778415559
scalar RSUExampleScenario.node[53].veinsmobility 	totalDistance 	3400.6928267448
scalar RSUExampleScenario.node[53].veinsmobility 	totalCO2Emission 	1315.195860667
scalar RSUExampleScenario.node[39].nic.phy80211p 	busyTime 	7.491833030853e-06
scalar RSUExampleScenario.node[39].nic.mac1609_4 	ReceivedUnicastPackets 	0
scalar RSUExampleScenario.node[39].nic.mac1609_4 	ReceivedBroadcasts 	32
scalar RSUExampleScenario.node[39].nic.mac1609_4 	SentPackets 	1
scalar RSUExampleScenario.node[39].nic.mac1609_4 	SNIRLostPackets 	11
scalar RSUExampleScenario.node[39].nic.mac1609_4 	RXTXLostPackets 	0
scalar RSUExampleScenario.node[39].nic.mac1609_4 	TotalLostPackets 	11
scalar RSUExampleScenario.node[39].nic.mac1609_4 	DroppedPacketsInMac 	0
scalar RSUExampleScenario.node[39].nic.mac1609_4 	TooLittleTime 	0
scalar RSUExampleScenario.node[39].nic.mac1609_4 	TimesIntoBackoff 	1
scalar RSUExampleScenario.node[39].nic.mac1609_4 	SlotsBackoff 	5
scalar RSUExampleScenario.node[39].nic.mac1609_4 	NumInternalContention 	0
scalar RSUExampleScenario.node[39].nic.mac1609_4 	totalBusyTime 	0.003553034613
scalar RSUExampleScenario.node[39].veinsmobility 	startTime 	72
scalar RSUExampleScenario.node[39].veinsmobility 	totalTime 	550
scalar RSUExampleScenario.node[39].veinsmobility 	stopTime 	623
scalar RSUExampleScenario.node[39].veinsmobility 	minSpeed 	0
scalar RSUExampleScenario.node[39].veinsmobility 	maxSpeed 	27.779615800045
scalar RSUExampleScenario.node[39].veinsmobility 	totalDistance 	3396.9294914647
scalar RSUExampleScenario.node[39].veinsmobility 	totalCO2Emission 	1328.8729048602
scalar RSUExampleScenario.node[29].nic.phy80211p 	busyTime 	5.7062937062937e-06
scalar RSUExampleScenario.node[29].nic.mac1609_4 	ReceivedUnicastPackets 	0
scalar RSUExampleScenario.node[29].nic.mac1609_4 	ReceivedBroadcasts 	19
scalar RSUExampleScenario.node[29].nic.mac1609_4 	SentPackets 	1
scalar RSUExampleScenario.node[29].nic.mac1609_4 	SNIRLostPackets 	15
scalar RSUExampleScenario.node[29].nic.mac1609_4 	RXTXLostPackets 	0
scalar RSUExampleScenario.node[29].nic.mac1609_4 	TotalLostPackets 	15
scalar RSUExampleScenario.node[29].nic.mac1609_4 	DroppedPacketsInMac 	0
scalar RSUExampleScenario.node[29].nic.mac1609_4 	TooLittleTime 	0
scalar RSUExampleScenario.node[29].nic.mac1609_4 	TimesIntoBackoff 	1
scalar RSUExampleScenario.node[29].nic.mac1609_4 	SlotsBackoff 	3
scalar RSUExampleScenario.node[29].nic.mac1609_4 	NumInternalContention 	0
scalar RSUExampleScenario.node[29].nic.mac1609_4 	totalBusyTime 	0.002497
scalar RSUExampleScenario.node[29].veinsmobility 	startTime 	53
scalar RSUExampleScenario.node[29].veinsmobility 	totalTime 	571
scalar RSUExampleScenario.node[29].veinsmobility 	stopTime 	625
scalar RSUExampleScenario.node[29].veinsmobility 	minSpeed 	0
scalar RSUExampleScenario.node[29].veinsmobility 	maxSpeed 	16.663127341149
scalar RSUExampleScenario.node[29].veinsmobility 	totalDistance 	3247.7823200642
scalar RSUExampleScenario.node[29].veinsmobility 	totalCO2Emission 	1162.6633934227
scalar RSUExampleScenario.node[54].nic.phy80211p 	busyTime 	4.6153846153846e-06
scalar RSUExampleScenario.node[54].nic.mac1609_4 	ReceivedUnicastPackets 	0
scalar RSUExampleScenario.node[54].nic.mac1609_4 	ReceivedBroadcasts 	17
scalar RSUExampleScenario.node[54].nic.mac1609_4 	SentPackets 	1
scalar RSUExampleScenario.node[54].nic.mac1609_4 	SNIRLostPackets 	8
scalar RSUExampleScenario.node[54].nic.mac1609_4 	RXTXLostPackets 	1
scalar RSUExampleScenario.node[54].nic.mac1609_4 	TotalLostPackets 	9
scalar RSUExampleScenario.node[54].nic.mac1609_4 	DroppedPacketsInMac 	0
scalar RSUExampleScenario.node[54].nic.mac1609_4 	TooLittleTime 	0
scalar RSUExampleScenario.node[54].nic.mac1609_4 	TimesIntoBackoff 	1
scalar RSUExampleScenario.node[54].nic.mac1609_4 	SlotsBackoff 	5
scalar RSUExampleScenario.node[54].nic.mac1609_4 	NumInternalContention 	0
scalar RSUExampleScenario.node[54].nic.mac1609_4 	totalBusyTime 	0.002113
scalar RSUExampleScenario.node[54].veinsmobility 	startTime 	108
scalar RSUExampleScenario.node[54].veinsmobility 	totalTime 	519
scalar RSUExampleScenario.node[54].veinsmobility 	stopTime 	628
scalar RSUExampleScenario.node[54].veinsmobility 	minSpeed 	0
scalar RSUExampleScenario.node[54].veinsmobility 	maxSpeed 	27.771472079176
scalar RSUExampleScenario.node[54].veinsmobility 	totalDistance 	3400.9748953066
scalar RSUExampleScenario.node[54].veinsmobility 	totalCO2Emission 	1266.3670194864
scalar RSUExampleScenario.node[33].nic.phy80211p 	busyTime 	4.9399656946827e-06
scalar RSUExampleScenario.node[33].nic.mac1609_4 	ReceivedUnicastPackets 	0
scalar RSUExampleScenario.node[33].nic.mac1609_4 	ReceivedBroadcasts 	22
scalar RSUExampleScenario.node[33].nic.mac1609_4 	SentPackets 	1
scalar RSUExampleScenario.node[33].nic.mac1609_4 	SNIRLostPackets 	8
scalar RSUExampleScenario.node[33].nic.mac1609_4 	RXTXLostPackets 	0
scalar RSUExampleScenario.node[33].nic.mac1609_4 	TotalLostPackets 	8
scalar RSUExampleScenario.node[33].nic.mac1609_4 	DroppedPacketsInMac 	0
scalar RSUExampleScenario.node[33].nic.mac1609_4 	TooLittleTime 	0
scalar RSUExampleScenario.node[33].nic.mac1609_4 	TimesIntoBackoff 	1
scalar RSUExampleScenario.node[33].nic.mac1609_4 	SlotsBackoff 	4
scalar RSUExampleScenario.node[33].nic.mac1609_4 	NumInternalContention 	0
scalar RSUExampleScenario.node[33].nic.mac1609_4 	totalBusyTime 	0.002497
scalar RSUExampleScenario.node[33].veinsmobility 	startTime 	60
scalar RSUExampleScenario.node[33].veinsmobility 	totalTime 	582
scalar RSUExampleScenario.node[33].veinsmobility 	stopTime 	643
scalar RSUExampleScenario.node[33].veinsmobility 	minSpeed 	0
scalar RSUExampleScenario.node[33].veinsmobility 	maxSpeed 	27.754512508195
scalar RSUExampleScenario.node[33].veinsmobility 	totalDistance 	3404.472805917
scalar RSUExampleScenario.node[33].veinsmobility 	totalCO2Emission 	1400.1357721652
scalar RSUExampleScenario.node[27].nic.phy80211p 	busyTime 	5.5537190082645e-06
scalar RSUExampleScenario.node[27].nic.mac1609_4 	ReceivedUnicastPackets 	0
scalar RSUExampleScenario.node[27].nic.mac1609_4 	ReceivedBroadcasts 	18
scalar RSUExampleScenario.node[27].nic.mac1609_4 	SentPackets 	1
scalar RSUExampleScenario.node[27].nic.mac1609_4 	SNIRLostPackets 	17
scalar RSUExampleScenario.node[27].nic.mac1609_4 	RXTXLostPackets 	0
scalar RSUExampleScenario.node[27].nic.mac1609_4 	TotalLostPackets 	17
scalar RSUExampleScenario.node[27].nic.mac1609_4 	DroppedPacketsInMac 	0
scalar RSUExampleScenario.node[27].nic.mac1609_4 	TooLittleTime 	0
scalar RSUExampleScenario.node[27].nic.mac1609_4 	TimesIntoBackoff 	1
scalar RSUExampleScenario.node[27].nic.mac1609_4 	SlotsBackoff 	5
scalar RSUExampleScenario.node[27].nic.mac1609_4 	NumInternalContention 	0
scalar RSUExampleScenario.node[27].nic.mac1609_4 	totalBusyTime 	0.002497
scalar RSUExampleScenario.node[27].veinsmobility 	startTime 	49
scalar RSUExampleScenario.node[27].veinsmobility 	totalTime 	604
scalar RSUExampleScenario.node[27].veinsmobility 	stopTime 	654
scalar RSUExampleScenario.node[27].veinsmobility 	minSpeed 	0
scalar RSUExampleScenario.node[27].veinsmobility 	maxSpeed 	16.658724715924
scalar RSUExampleScenario.node[27].veinsmobility 	totalDistance 	3353.1325011447
scalar RSUExampleScenario.node[27].veinsmobility 	totalCO2Emission 	1189.8260625494
scalar RSUExampleScenario.node[52].nic.phy80211p 	busyTime 	4.5054151624549e-06
scalar RSUExampleScenario.node[52].nic.mac1609_4 	ReceivedUnicastPackets 	0
scalar RSUExampleScenario.node[52].nic.mac1609_4 	ReceivedBroadcasts 	17
scalar RSUExampleScenario.node[52].nic.mac1609_4 	SentPackets 	1
scalar RSUExampleScenario.node[52].nic.mac1609_4 	SNIRLostPackets 	9
scalar RSUExampleScenario.node[52].nic.mac1609_4 	RXTXLostPackets 	0
scalar RSUExampleScenario.node[52].nic.mac1609_4 	TotalLostPackets 	9
scalar RSUExampleScenario.node[52].nic.mac1609_4 	DroppedPacketsInMac 	0
scalar RSUExampleScenario.node[52].nic.mac1609_4 	TooLittleTime 	0
scalar RSUExampleScenario.node[52].nic.mac1609_4 	TimesIntoBackoff 	1
scalar RSUExampleScenario.node[52].nic.mac1609_4 	SlotsBackoff 	1
scalar RSUExampleScenario.node[52].nic.mac1609_4 	NumInternalContention 	0
scalar RSUExampleScenario.node[52].nic.mac1609_4 	totalBusyTime 	0.002113
scalar RSUExampleScenario.node[52].veinsmobility 	startTime 	103
scalar RSUExampleScenario.node[52].veinsmobility 	totalTime 	553
scalar RSUExampleScenario.node[52].veinsmobility 	stopTime 	657
scalar RSUExampleScenario.node[52].veinsmobility 	minSpeed 	0
scalar RSUExampleScenario.node[52].veinsmobility 	maxSpeed 	27.764825828094
scalar RSUExampleScenario.node[52].veinsmobility 	totalDistance 	3405.9280108738
scalar RSUExampleScenario.node[52].veinsmobility 	totalCO2Emission 	1379.5983763983
scalar RSUExampleScenario.node[56].nic.phy80211p 	busyTime 	4.563071297989e-06
scalar RSUExampleScenario.node[56].nic.mac1609_4 	ReceivedUnicastPackets 	0
scalar RSUExampleScenario.node[56].nic.mac1609_4 	ReceivedBroadcasts 	18
scalar RSUExampleScenario.node[56].nic.mac1609_4 	SentPackets 	1
scalar RSUExampleScenario.node[56].nic.mac1609_4 	SNIRLostPackets 	8
scalar RSUExampleScenario.node[56].nic.mac1609_4 	RXTXLostPackets 	0
scalar RSUExampleScenario.node[56].nic.mac1609_4 	TotalLostPackets 	8
scalar RSUExampleScenario.node[56].nic.mac1609_4 	DroppedPacketsInMac 	0
scalar RSUExampleScenario.node[56].nic.mac1609_4 	TooLittleTime 	0
scalar RSUExampleScenario.node[56].nic.mac1609_4 	TimesIntoBackoff 	2
scalar RSUExampleScenario.node[56].nic.mac1609_4 	SlotsBackoff 	10
scalar RSUExampleScenario.node[56].nic.mac1609_4 	NumInternalContention 	0
scalar RSUExampleScenario.node[56].nic.mac1609_4 	totalBusyTime 	0.002113
scalar RSUExampleScenario.node[56].veinsmobility 	startTime 	112
scalar RSUExampleScenario.node[56].veinsmobility 	totalTime 	546
scalar RSUExampleScenario.node[56].veinsmobility 	stopTime 	659
scalar RSUExampleScenario.node[56].veinsmobility 	minSpeed 	0
scalar RSUExampleScenario.node[56].veinsmobility 	maxSpeed 	27.740296644075
scalar RSUExampleScenario.node[56].veinsmobility 	totalDistance 	3392.6841475729
scalar RSUExampleScenario.node[56].veinsmobility 	totalCO2Emission 	1360.2665152861
scalar RSUExampleScenario.node[59].nic.phy80211p 	busyTime 	6.5535055350554e-06
scalar RSUExampleScenario.node[59].nic.mac1609_4 	ReceivedUnicastPackets 	0
scalar RSUExampleScenario.node[59].nic.mac1609_4 	ReceivedBroadcasts 	22
scalar RSUExampleScenario.node[59].nic.mac1609_4 	SentPackets 	1
scalar RSUExampleScenario.node[59].nic.mac1609_4 	SNIRLostPackets 	15
scalar RSUExampleScenario.node[59].nic.mac1609_4 	RXTXLostPackets 	0
scalar RSUExampleScenario.node[59].nic.mac1609_4 	TotalLostPackets 	15
scalar RSUExampleScenario.node[59].nic.mac1609_4 	DroppedPacketsInMac 	0
scalar RSUExampleScenario.node[59].nic.mac1609_4 	TooLittleTime 	0
scalar RSUExampleScenario.node[59].nic.mac1609_4 	TimesIntoBackoff 	2
scalar RSUExampleScenario.node[59].nic.mac1609_4 	SlotsBackoff 	14
scalar RSUExampleScenario.node[59].nic.mac1609_4 	NumInternalContention 	0
scalar RSUExampleScenario.node[59].nic.mac1609_4 	totalBusyTime 	0.003016449787
scalar RSUExampleScenario.node[59].veinsmobility 	startTime 	119
scalar RSUExampleScenario.node[59].veinsmobility 	totalTime 	541
scalar RSUExampleScenario.node[59].veinsmobility 	stopTime 	661
scalar RSUExampleScenario.node[59].veinsmobility 	minSpeed 	0
scalar RSUExampleScenario.node[59].veinsmobility 	maxSpeed 	27.610770291239
scalar RSUExampleScenario.node[59].veinsmobility 	totalDistance 	3400.9674334354
scalar RSUExampleScenario.node[59].veinsmobility 	totalCO2Emission 	1386.6183307606
scalar RSUExampleScenario.node[57].nic.phy80211p 	busyTime 	4.3636363636364e-06
scalar RSUExampleScenario.node[57].nic.mac1609_4 	ReceivedUnicastPackets 	0
scalar RSUExampleScenario.node[57].nic.mac1609_4 	ReceivedBroadcasts 	18
scalar RSUExampleScenario.node[57].nic.mac1609_4 	SentPackets 	1
scalar RSUExampleScenario.node[57].nic.mac1609_4 	SNIRLostPackets 	7
scalar RSUExampleScenario.node[57].nic.mac1609_4 	RXTXLostPackets 	1
scalar RSUExampleScenario.node[57].nic.mac1609_4 	TotalLostPackets 	8
scalar RSUExampleScenario.node[57].nic.mac1609_4 	DroppedPacketsInMac 	0
scalar RSUExampleScenario.node[57].nic.mac1609_4 	TooLittleTime 	0
scalar RSUExampleScenario.node[57].nic.mac1609_4 	TimesIntoBackoff 	1
scalar RSUExampleScenario.node[57].nic.mac1609_4 	SlotsBackoff 	4
scalar RSUExampleScenario.node[57].nic.mac1609_4 	NumInternalContention 	0
scalar RSUExampleScenario.node[57].nic.mac1609_4 	totalBusyTime 	0.002113
scalar RSUExampleScenario.node[57].veinsmobility 	startTime 	114
scalar RSUExampleScenario.node[57].veinsmobility 	totalTime 	549
scalar RSUExampleScenario.node[57].veinsmobility 	stopTime 	664
scalar RSUExampleScenario.node[57].veinsmobility 	minSpeed 	0
scalar RSUExampleScenario.node[57].veinsmobility 	maxSpeed 	27.735987794986
scalar RSUExampleScenario.node[57].veinsmobility 	totalDistance 	3402.0054690043
scalar RSUExampleScenario.node[57].veinsmobility 	totalCO2Emission 	1430.8967434169
scalar RSUExampleScenario.node[58].nic.phy80211p 	busyTime 	4.5464480874317e-06
scalar RSUExampleScenario.node[58].nic.mac1609_4 	ReceivedUnicastPackets 	0
scalar RSUExampleScenario.node[58].nic.mac1609_4 	ReceivedBroadcasts 	17
scalar RSUExampleScenario.node[58].nic.mac1609_4 	SentPackets 	1
scalar RSUExampleScenario.node[58].nic.mac1609_4 	SNIRLostPackets 	9
scalar RSUExampleScenario.node[58].nic.mac1609_4 	RXTXLostPackets 	0
scalar RSUExampleScenario.node[58].nic.mac1609_4 	TotalLostPackets 	9
scalar RSUExampleScenario.node[58].nic.mac1609_4 	DroppedPacketsInMac 	0
scalar RSUExampleScenario.node[58].nic.mac1609_4 	TooLittleTime 	0
scalar RSUExampleScenario.node[58].nic.mac1609_4 	TimesIntoBackoff 	2
scalar RSUExampleScenario.node[58].nic.mac1609_4 	SlotsBackoff 	6
scalar RSUExampleScenario.node[58].nic.mac1609_4 	NumInternalContention 	0
scalar RSUExampleScenario.node[58].nic.mac1609_4 	totalBusyTime 	0.002113
scalar RSUExampleScenario.node[58].veinsmobility 	startTime 	117
scalar RSUExampleScenario.node[58].veinsmobility 	totalTime 	548
scalar RSUExampleScenario.node[58].veinsmobility 	stopTime 	666
scalar RSUExampleScenario.node[58].veinsmobility 	minSpeed 	0
scalar RSUExampleScenario.node[58].veinsmobility 	maxSpeed 	27.616918923641
scalar RSUExampleScenario.node[58].veinsmobility 	totalDistance 	3403.4672126843
scalar RSUExampleScenario.node[58].veinsmobility 	totalCO2Emission 	1369.3447147689
scalar RSUExampleScenario.node[28].nic.phy80211p 	busyTime 	5.290113452188e-06
scalar RSUExampleScenario.node[28].nic.mac1609_4 	ReceivedUnicastPackets 	0
scalar RSUExampleScenario.node[28].nic.mac1609_4 	ReceivedBroadcasts 	19
scalar RSUExampleScenario.node[28].nic.mac1609_4 	SentPackets 	1
scalar RSUExampleScenario.node[28].nic.mac1609_4 	SNIRLostPackets 	15
scalar RSUExampleScenario.node[28].nic.mac1609_4 	RXTXLostPackets 	0
scalar RSUExampleScenario.node[28].nic.mac1609_4 	TotalLostPackets 	15
scalar RSUExampleScenario.node[28].nic.mac1609_4 	DroppedPacketsInMac 	0
scalar RSUExampleScenario.node[28].nic.mac1609_4 	TooLittleTime 	0
scalar RSUExampleScenario.node[28].nic.mac1609_4 	TimesIntoBackoff 	2
scalar RSUExampleScenario.node[28].nic.mac1609_4 	SlotsBackoff 	13
scalar RSUExampleScenario.node[28].nic.mac1609_4 	NumInternalContention 	0
scalar RSUExampleScenario.node[28].nic.mac1609_4 	totalBusyTime 	0.002497
scalar RSUExampleScenario.node[28].veinsmobility 	startTime 	51
scalar RSUExampleScenario.node[28].veinsmobility 	totalTime 	616
scalar RSUExampleScenario.node[28].veinsmobility 	stopTime 	668
scalar RSUExampleScenario.node[28].veinsmobility 	minSpeed 	0
scalar RSUExampleScenario.node[28].veinsmobility 	maxSpeed 	16.665987408748
scalar RSUExampleScenario.node[28].veinsmobility 	totalDistance 	3353.7426635469
scalar RSUExampleScenario.node[28].veinsmobility 	totalCO2Emission 	1151.4724630326
scalar RSUExampleScenario.node[61].nic.phy80211p 	busyTime 	4.8695652173913e-06
scalar RSUExampleScenario.node[61].nic.mac1609_4 	ReceivedUnicastPackets 	0
scalar RSUExampleScenario.node[61].nic.mac1609_4 	ReceivedBroadcasts 	14
scalar RSUExampleScenario.node[61].nic.mac1609_4 	SentPackets 	1
scalar RSUExampleScenario.node[61].nic.mac1609_4 	SNIRLostPackets 	14
scalar RSUExampleScenario.node[61].nic.mac1609_4 	RXTXLostPackets 	0
scalar RSUExampleScenario.node[61].nic.mac1609_4 	TotalLostPackets 	14
scalar RSUExampleScenario.node[61].nic.mac1609_4 	DroppedPacketsInMac 	0
scalar RSUExampleScenario.node[61].nic.mac1609_4 	TooLittleTime 	0
scalar RSUExampleScenario.node[61].nic.mac1609_4 	TimesIntoBackoff 	1
scalar RSUExampleScenario.node[61].nic.mac1609_4 	SlotsBackoff 	6
scalar RSUExampleScenario.node[61].nic.mac1609_4 	NumInternalContention 	0
scalar RSUExampleScenario.node[61].nic.mac1609_4 	totalBusyTime 	0.002113158314
scalar RSUExampleScenario.node[61].veinsmobility 	startTime 	124
scalar RSUExampleScenario.node[61].veinsmobility 	totalTime 	551
scalar RSUExampleScenario.node[61].veinsmobility 	stopTime 	676
scalar RSUExampleScenario.node[61].veinsmobility 	minSpeed 	0
scalar RSUExampleScenario.node[61].veinsmobility 	maxSpeed 	27.736605537254
scalar RSUExampleScenario.node[61].veinsmobility 	totalDistance 	3405.088916853
scalar RSUExampleScenario.node[61].veinsmobility 	totalCO2Emission 	1347.5527004609
scalar RSUExampleScenario.node[55].nic.phy80211p 	busyTime 	6.0738137082601e-06
scalar RSUExampleScenario.node[55].nic.mac1609_4 	ReceivedUnicastPackets 	0
scalar RSUExampleScenario.node[55].nic.mac1609_4 	ReceivedBroadcasts 	24
scalar RSUExampleScenario.node[55].nic.mac1609_4 	SentPackets 	1
scalar RSUExampleScenario.node[55].nic.mac1609_4 	SNIRLostPackets 	12
scalar RSUExampleScenario.node[55].nic.mac1609_4 	RXTXLostPackets 	0
scalar RSUExampleScenario.node[55].nic.mac1609_4 	TotalLostPackets 	12
scalar RSUExampleScenario.node[55].nic.mac1609_4 	DroppedPacketsInMac 	0
scalar RSUExampleScenario.node[55].nic.mac1609_4 	TooLittleTime 	0
scalar RSUExampleScenario.node[55].nic.mac1609_4 	TimesIntoBackoff 	1
scalar RSUExampleScenario.node[55].nic.mac1609_4 	SlotsBackoff 	6
scalar RSUExampleScenario.node[55].nic.mac1609_4 	NumInternalContention 	0
scalar RSUExampleScenario.node[55].nic.mac1609_4 	totalBusyTime 	0.002977
scalar RSUExampleScenario.node[55].veinsmobility 	startTime 	110
scalar RSUExampleScenario.node[55].veinsmobility 	totalTime 	568
scalar RSUExampleScenario.node[55].veinsmobility 	stopTime 	679
scalar RSUExampleScenario.node[55].veinsmobility 	minSpeed 	0
scalar RSUExampleScenario.node[55].veinsmobility 	maxSpeed 	27.750441522188
scalar RSUExampleScenario.node[55].veinsmobility 	totalDistance 	3410.201234111
scalar RSUExampleScenario.node[55].veinsmobility 	totalCO2Emission 	1419.7813252898
scalar RSUExampleScenario.node[62].nic.phy80211p 	busyTime 	5.0162162162162e-06
scalar RSUExampleScenario.node[62].nic.mac1609_4 	ReceivedUnicastPackets 	0
scalar RSUExampleScenario.node[62].nic.mac1609_4 	ReceivedBroadcasts 	14
scalar RSUExampleScenario.node[62].nic.mac1609_4 	SentPackets 	1
scalar RSUExampleScenario.node[62].nic.mac1609_4 	SNIRLostPackets 	15
scalar RSUExampleScenario.node[62].nic.mac1609_4 	RXTXLostPackets 	1
scalar RSUExampleScenario.node[62].nic.mac1609_4 	TotalLostPackets 	16
scalar RSUExampleScenario.node[62].nic.mac1609_4 	DroppedPacketsInMac 	0
scalar RSUExampleScenario.node[62].nic.mac1609_4 	TooLittleTime 	0
scalar RSUExampleScenario.node[62].nic.mac1609_4 	TimesIntoBackoff 	2
scalar RSUExampleScenario.node[62].nic.mac1609_4 	SlotsBackoff 	10
scalar RSUExampleScenario.node[62].nic.mac1609_4 	NumInternalContention 	0
scalar RSUExampleScenario.node[62].nic.mac1609_4 	totalBusyTime 	0.002113
scalar RSUExampleScenario.node[62].veinsmobility 	startTime 	126
scalar RSUExampleScenario.node[62].veinsmobility 	totalTime 	554
scalar RSUExampleScenario.node[62].veinsmobility 	stopTime 	681
scalar RSUExampleScenario.node[62].veinsmobility 	minSpeed 	0
scalar RSUExampleScenario.node[62].veinsmobility 	maxSpeed 	27.708324120026
scalar RSUExampleScenario.node[62].veinsmobility 	totalDistance 	3400.6175245362
scalar RSUExampleScenario.node[62].veinsmobility 	totalCO2Emission 	1343.9133302938
scalar RSUExampleScenario.node[63].nic.phy80211p 	busyTime 	5.3525179856115e-06
scalar RSUExampleScenario.node[63].nic.mac1609_4 	ReceivedUnicastPackets 	0
scalar RSUExampleScenario.node[63].nic.mac1609_4 	ReceivedBroadcasts 	14
scalar RSUExampleScenario.node[63].nic.mac1609_4 	SentPackets 	1
scalar RSUExampleScenario.node[63].nic.mac1609_4 	SNIRLostPackets 	17
scalar RSUExampleScenario.node[63].nic.mac1609_4 	RXTXLostPackets 	0
scalar RSUExampleScenario.node[63].nic.mac1609_4 	TotalLostPackets 	17
scalar RSUExampleScenario.node[63].nic.mac1609_4 	DroppedPacketsInMac 	0
scalar RSUExampleScenario.node[63].nic.mac1609_4 	TooLittleTime 	0
scalar RSUExampleScenario.node[63].nic.mac1609_4 	TimesIntoBackoff 	2
scalar RSUExampleScenario.node[63].nic.mac1609_4 	SlotsBackoff 	6
scalar RSUExampleScenario.node[63].nic.mac1609_4 	NumInternalContention 	0
scalar RSUExampleScenario.node[63].nic.mac1609_4 	totalBusyTime 	0.002209
scalar RSUExampleScenario.node[63].veinsmobility 	startTime 	128
scalar RSUExampleScenario.node[63].veinsmobility 	totalTime 	555
scalar RSUExampleScenario.node[63].veinsmobility 	stopTime 	684
scalar RSUExampleScenario.node[63].veinsmobility 	minSpeed 	0
scalar RSUExampleScenario.node[63].veinsmobility 	maxSpeed 	26.85820066475
scalar RSUExampleScenario.node[63].veinsmobility 	totalDistance 	3403.5041727671
scalar RSUExampleScenario.node[63].veinsmobility 	totalCO2Emission 	1389.108056711
scalar RSUExampleScenario.node[31].nic.phy80211p 	busyTime 	4.7238095238095e-06
scalar RSUExampleScenario.node[31].nic.mac1609_4 	ReceivedUnicastPackets 	0
scalar RSUExampleScenario.node[31].nic.mac1609_4 	ReceivedBroadcasts 	19
scalar RSUExampleScenario.node[31].nic.mac1609_4 	SentPackets 	1
scalar RSUExampleScenario.node[31].nic.mac1609_4 	SNIRLostPackets 	12
scalar RSUExampleScenario.node[31].nic.mac1609_4 	RXTXLostPackets 	0
scalar RSUExampleScenario.node[31].nic.mac1609_4 	TotalLostPackets 	12
scalar RSUExampleScenario.node[31].nic.mac1609_4 	DroppedPacketsInMac 	0
scalar RSUExampleScenario.node[31].nic.mac1609_4 	TooLittleTime 	0
scalar RSUExampleScenario.node[31].nic.mac1609_4 	TimesIntoBackoff 	1
scalar RSUExampleScenario.node[31].nic.mac1609_4 	SlotsBackoff 	0
scalar RSUExampleScenario.node[31].nic.mac1609_4 	NumInternalContention 	0
scalar RSUExampleScenario.node[31].nic.mac1609_4 	totalBusyTime 	0.002478947871
scalar RSUExampleScenario.node[31].veinsmobility 	startTime 	56
scalar RSUExampleScenario.node[31].veinsmobility 	totalTime 	629
scalar RSUExampleScenario.node[31].veinsmobility 	stopTime 	686
scalar RSUExampleScenario.node[31].veinsmobility 	minSpeed 	0
scalar RSUExampleScenario.node[31].veinsmobility 	maxSpeed 	16.657720965063
scalar RSUExampleScenario.node[31].veinsmobility 	totalDistance 	3252.4118144602
scalar RSUExampleScenario.node[31].veinsmobility 	totalCO2Emission 	1223.743273282
scalar RSUExampleScenario.node[32].nic.phy80211p 	busyTime 	4.1142857142857e-06
scalar RSUExampleScenario.node[32].nic.mac1609_4 	ReceivedUnicastPackets 	0
scalar RSUExampleScenario.node[32].nic.mac1609_4 	ReceivedBroadcasts 	19
scalar RSUExampleScenario.node[32].nic.mac1609_4 	SentPackets 	1
scalar RSUExampleScenario.node[32].nic.mac1609_4 	SNIRLostPackets 	8
scalar RSUExampleScenario.node[32].nic.mac1609_4 	RXTXLostPackets 	0
scalar RSUExampleScenario.node[32].nic.mac1609_4 	TotalLostPackets 	8
scalar RSUExampleScenario.node[32].nic.mac1609_4 	DroppedPacketsInMac 	0
scalar RSUExampleScenario.node[32].nic.mac1609_4 	TooLittleTime 	0
scalar RSUExampleScenario.node[32].nic.mac1609_4 	TimesIntoBackoff 	2
scalar RSUExampleScenario.node[32].nic.mac1609_4 	SlotsBackoff 	2
scalar RSUExampleScenario.node[32].nic.mac1609_4 	NumInternalContention 	0
scalar RSUExampleScenario.node[32].nic.mac1609_4 	totalBusyTime 	0.002209
scalar RSUExampleScenario.node[32].veinsmobility 	startTime 	58
scalar RSUExampleScenario.node[32].veinsmobility 	totalTime 	629
scalar RSUExampleScenario.node[32].veinsmobility 	stopTime 	688
scalar RSUExampleScenario.node[32].veinsmobility 	minSpeed 	0
scalar RSUExampleScenario.node[32].veinsmobility 	maxSpeed 	16.65499803423
scalar RSUExampleScenario.node[32].veinsmobility 	totalDistance 	3250.4725450496
scalar RSUExampleScenario.node[32].veinsmobility 	totalCO2Emission 	1167.7512795649
scalar RSUExampleScenario.node[65].nic.phy80211p 	busyTime 	7.9139784946237e-06
scalar RSUExampleScenario.node[65].nic.mac1609_4 	ReceivedUnicastPackets 	0
scalar RSUExampleScenario.node[65].nic.mac1609_4 	ReceivedBroadcasts 	20
scalar RSUExampleScenario.node[65].nic.mac1609_4 	SentPackets 	1
scalar RSUExampleScenario.node[65].nic.mac1609_4 	SNIRLostPackets 	26
scalar RSUExampleScenario.node[65].nic.mac1609_4 	RXTXLostPackets 	0
scalar RSUExampleScenario.node[65].nic.mac1609_4 	TotalLostPackets 	26
scalar RSUExampleScenario.node[65].nic.mac1609_4 	DroppedPacketsInMac 	0
scalar RSUExampleScenario.node[65].nic.mac1609_4 	TooLittleTime 	0
scalar RSUExampleScenario.node[65].nic.mac1609_4 	TimesIntoBackoff 	2
scalar RSUExampleScenario.node[65].nic.mac1609_4 	SlotsBackoff 	9
scalar RSUExampleScenario.node[65].nic.mac1609_4 	NumInternalContention 	0
scalar RSUExampleScenario.node[65].nic.mac1609_4 	totalBusyTime 	0.003169148941
scalar RSUExampleScenario.node[65].veinsmobility 	startTime 	133
scalar RSUExampleScenario.node[65].veinsmobility 	totalTime 	557
scalar RSUExampleScenario.node[65].veinsmobility 	stopTime 	691
scalar RSUExampleScenario.node[65].veinsmobility 	minSpeed 	0
scalar RSUExampleScenario.node[65].veinsmobility 	maxSpeed 	25.119647941317
scalar RSUExampleScenario.node[65].veinsmobility 	totalDistance 	3407.5646581818
scalar RSUExampleScenario.node[65].veinsmobility 	totalCO2Emission 	1345.5819889466
scalar RSUExampleScenario.node[73].nic.phy80211p 	busyTime 	9.0332103321033e-06
scalar RSUExampleScenario.node[73].nic.mac1609_4 	ReceivedUnicastPackets 	0
scalar RSUExampleScenario.node[73].nic.mac1609_4 	ReceivedBroadcasts 	34
scalar RSUExampleScenario.node[73].nic.mac1609_4 	SentPackets 	1
scalar RSUExampleScenario.node[73].nic.mac1609_4 	SNIRLostPackets 	17
scalar RSUExampleScenario.node[73].nic.mac1609_4 	RXTXLostPackets 	1
scalar RSUExampleScenario.node[73].nic.mac1609_4 	TotalLostPackets 	18
scalar RSUExampleScenario.node[73].nic.mac1609_4 	DroppedPacketsInMac 	0
scalar RSUExampleScenario.node[73].nic.mac1609_4 	TooLittleTime 	0
scalar RSUExampleScenario.node[73].nic.mac1609_4 	TimesIntoBackoff 	2
scalar RSUExampleScenario.node[73].nic.mac1609_4 	SlotsBackoff 	9
scalar RSUExampleScenario.node[73].nic.mac1609_4 	NumInternalContention 	0
scalar RSUExampleScenario.node[73].nic.mac1609_4 	totalBusyTime 	0.004417195574
scalar RSUExampleScenario.node[73].veinsmobility 	startTime 	151
scalar RSUExampleScenario.node[73].veinsmobility 	totalTime 	541
scalar RSUExampleScenario.node[73].veinsmobility 	stopTime 	693
scalar RSUExampleScenario.node[73].veinsmobility 	minSpeed 	0
scalar RSUExampleScenario.node[73].veinsmobility 	maxSpeed 	27.769217884168
scalar RSUExampleScenario.node[73].veinsmobility 	totalDistance 	3405.5034564638
scalar RSUExampleScenario.node[73].veinsmobility 	totalCO2Emission 	1254.6691763898
scalar RSUExampleScenario.node[66].nic.phy80211p 	busyTime 	8.5561497326203e-06
scalar RSUExampleScenario.node[66].nic.mac1609_4 	ReceivedUnicastPackets 	0
scalar RSUExampleScenario.node[66].nic.mac1609_4 	ReceivedBroadcasts 	19
scalar RSUExampleScenario.node[66].nic.mac1609_4 	SentPackets 	1
scalar RSUExampleScenario.node[66].nic.mac1609_4 	SNIRLostPackets 	31
scalar RSUExampleScenario.node[66].nic.mac1609_4 	RXTXLostPackets 	0
scalar RSUExampleScenario.node[66].nic.mac1609_4 	TotalLostPackets 	31
scalar RSUExampleScenario.node[66].nic.mac1609_4 	DroppedPacketsInMac 	0
scalar RSUExampleScenario.node[66].nic.mac1609_4 	TooLittleTime 	0
scalar RSUExampleScenario.node[66].nic.mac1609_4 	TimesIntoBackoff 	1
scalar RSUExampleScenario.node[66].nic.mac1609_4 	SlotsBackoff 	5
scalar RSUExampleScenario.node[66].nic.mac1609_4 	NumInternalContention 	0
scalar RSUExampleScenario.node[66].nic.mac1609_4 	totalBusyTime 	0.003457
scalar RSUExampleScenario.node[66].veinsmobility 	startTime 	135
scalar RSUExampleScenario.node[66].veinsmobility 	totalTime 	560
scalar RSUExampleScenario.node[66].veinsmobility 	stopTime 	696
scalar RSUExampleScenario.node[66].veinsmobility 	minSpeed 	0
scalar RSUExampleScenario.node[66].veinsmobility 	maxSpeed 	27.772243567714
scalar RSUExampleScenario.node[66].veinsmobility 	totalDistance 	3406.9537728631
scalar RSUExampleScenario.node[66].veinsmobility 	totalCO2Emission 	1356.1077535787
scalar RSUExampleScenario.node[30].nic.phy80211p 	busyTime 	4.7776049766719e-06
scalar RSUExampleScenario.node[30].nic.mac1609_4 	ReceivedUnicastPackets 	0
scalar RSUExampleScenario.node[30].nic.mac1609_4 	ReceivedBroadcasts 	20
scalar RSUExampleScenario.node[30].nic.mac1609_4 	SentPackets 	1
scalar RSUExampleScenario.node[30].nic.mac1609_4 	SNIRLostPackets 	12
scalar RSUExampleScenario.node[30].nic.mac1609_4 	RXTXLostPackets 	0
scalar RSUExampleScenario.node[30].nic.mac1609_4 	TotalLostPackets 	12
scalar RSUExampleScenario.node[30].nic.mac1609_4 	DroppedPacketsInMac 	0
scalar RSUExampleScenario.node[30].nic.mac1609_4 	TooLittleTime 	0
scalar RSUExampleScenario.node[30].nic.mac1609_4 	TimesIntoBackoff 	1
scalar RSUExampleScenario.node[30].nic.mac1609_4 	SlotsBackoff 	3
scalar RSUExampleScenario.node[30].nic.mac1609_4 	NumInternalContention 	0
scalar RSUExampleScenario.node[30].nic.mac1609_4 	totalBusyTime 	0.002574985721
scalar RSUExampleScenario.node[30].veinsmobility 	startTime 	55
scalar RSUExampleScenario.node[30].veinsmobility 	totalTime 	642
scalar RSUExampleScenario.node[30].veinsmobility 	stopTime 	698
scalar RSUExampleScenario.node[30].veinsmobility 	minSpeed 	0
scalar RSUExampleScenario.node[30].veinsmobility 	maxSpeed 	16.655926094158
scalar RSUExampleScenario.node[30].veinsmobility 	totalDistance 	3251.2618405674
scalar RSUExampleScenario.node[30].veinsmobility 	totalCO2Emission 	1171.0254853335
scalar RSUExampleScenario.node[68].nic.phy80211p 	busyTime 	8.9142857142857e-06
scalar RSUExampleScenario.node[68].nic.mac1609_4 	ReceivedUnicastPackets 	0
scalar RSUExampleScenario.node[68].nic.mac1609_4 	ReceivedBroadcasts 	25
scalar RSUExampleScenario.node[68].nic.mac1609_4 	SentPackets 	1
scalar RSUExampleScenario.node[68].nic.mac1609_4 	SNIRLostPackets 	27
scalar RSUExampleScenario.node[68].nic.mac1609_4 	RXTXLostPackets 	1
scalar RSUExampleScenario.node[68].nic.mac1609_4 	TotalLostPackets 	28
scalar RSUExampleScenario.node[68].nic.mac1609_4 	DroppedPacketsInMac 	0
scalar RSUExampleScenario.node[68].nic.mac1609_4 	TooLittleTime 	0
scalar RSUExampleScenario.node[68].nic.mac1609_4 	TimesIntoBackoff 	2
scalar RSUExampleScenario.node[68].nic.mac1609_4 	SlotsBackoff 	7
scalar RSUExampleScenario.node[68].nic.mac1609_4 	NumInternalContention 	0
scalar RSUExampleScenario.node[68].nic.mac1609_4 	totalBusyTime 	0.003745011362
scalar RSUExampleScenario.node[68].veinsmobility 	startTime 	140
scalar RSUExampleScenario.node[68].veinsmobility 	totalTime 	559
scalar RSUExampleScenario.node[68].veinsmobility 	stopTime 	700
scalar RSUExampleScenario.node[68].veinsmobility 	minSpeed 	0
scalar RSUExampleScenario.node[68].veinsmobility 	maxSpeed 	27.696667565098
scalar RSUExampleScenario.node[68].veinsmobility 	totalDistance 	3398.9240944505
scalar RSUExampleScenario.node[68].veinsmobility 	totalCO2Emission 	1271.0867819381
scalar RSUExampleScenario.node[60].nic.phy80211p 	busyTime 	6.2680412371134e-06
scalar RSUExampleScenario.node[60].nic.mac1609_4 	ReceivedUnicastPackets 	0
scalar RSUExampleScenario.node[60].nic.mac1609_4 	ReceivedBroadcasts 	24
scalar RSUExampleScenario.node[60].nic.mac1609_4 	SentPackets 	1
scalar RSUExampleScenario.node[60].nic.mac1609_4 	SNIRLostPackets 	14
scalar RSUExampleScenario.node[60].nic.mac1609_4 	RXTXLostPackets 	1
scalar RSUExampleScenario.node[60].nic.mac1609_4 	TotalLostPackets 	15
scalar RSUExampleScenario.node[60].nic.mac1609_4 	DroppedPacketsInMac 	0
scalar RSUExampleScenario.node[60].nic.mac1609_4 	TooLittleTime 	0
scalar RSUExampleScenario.node[60].nic.mac1609_4 	TimesIntoBackoff 	1
scalar RSUExampleScenario.node[60].nic.mac1609_4 	SlotsBackoff 	3
scalar RSUExampleScenario.node[60].nic.mac1609_4 	NumInternalContention 	0
scalar RSUExampleScenario.node[60].nic.mac1609_4 	totalBusyTime 	0.003169
scalar RSUExampleScenario.node[60].veinsmobility 	startTime 	121
scalar RSUExampleScenario.node[60].veinsmobility 	totalTime 	581
scalar RSUExampleScenario.node[60].veinsmobility 	stopTime 	703
scalar RSUExampleScenario.node[60].veinsmobility 	minSpeed 	0
scalar RSUExampleScenario.node[60].veinsmobility 	maxSpeed 	27.65126633646
scalar RSUExampleScenario.node[60].veinsmobility 	totalDistance 	3402.9517475784
scalar RSUExampleScenario.node[60].veinsmobility 	totalCO2Emission 	1385.5674925045
scalar RSUExampleScenario.node[96].nic.phy80211p 	busyTime 	6.4118738404453e-06
scalar RSUExampleScenario.node[96].nic.mac1609_4 	ReceivedUnicastPackets 	0
scalar RSUExampleScenario.node[96].nic.mac1609_4 	ReceivedBroadcasts 	31
scalar RSUExampleScenario.node[96].nic.mac1609_4 	SentPackets 	1
scalar RSUExampleScenario.node[96].nic.mac1609_4 	SNIRLostPackets 	5
scalar RSUExampleScenario.node[96].nic.mac1609_4 	RXTXLostPackets 	0
scalar RSUExampleScenario.node[96].nic.mac1609_4 	TotalLostPackets 	5
scalar RSUExampleScenario.node[96].nic.mac1609_4 	DroppedPacketsInMac 	0
scalar RSUExampleScenario.node[96].nic.mac1609_4 	TooLittleTime 	0
scalar RSUExampleScenario.node[96].nic.mac1609_4 	TimesIntoBackoff 	1
scalar RSUExampleScenario.node[96].nic.mac1609_4 	SlotsBackoff 	1
scalar RSUExampleScenario.node[96].nic.mac1609_4 	NumInternalContention 	0
scalar RSUExampleScenario.node[96].nic.mac1609_4 	totalBusyTime 	0.003361
scalar RSUExampleScenario.node[96].veinsmobility 	startTime 	214
scalar RSUExampleScenario.node[96].veinsmobility 	totalTime 	538
scalar RSUExampleScenario.node[96].veinsmobility 	stopTime 	753
scalar RSUExampleScenario.node[96].veinsmobility 	minSpeed 	0
scalar RSUExampleScenario.node[96].veinsmobility 	maxSpeed 	26.829062918826
scalar RSUExampleScenario.node[96].veinsmobility 	totalDistance 	3392.3870674397
scalar RSUExampleScenario.node[96].veinsmobility 	totalCO2Emission 	1066.8631773093
scalar RSUExampleScenario.node[40].nic.phy80211p 	busyTime 	3.3832599118943e-06
scalar RSUExampleScenario.node[40].nic.mac1609_4 	ReceivedUnicastPackets 	0
scalar RSUExampleScenario.node[40].nic.mac1609_4 	ReceivedBroadcasts 	19
scalar RSUExampleScenario.node[40].nic.mac1609_4 	SentPackets 	1
scalar RSUExampleScenario.node[40].nic.mac1609_4 	SNIRLostPackets 	5
scalar RSUExampleScenario.node[40].nic.mac1609_4 	RXTXLostPackets 	3
scalar RSUExampleScenario.node[40].nic.mac1609_4 	TotalLostPackets 	8
scalar RSUExampleScenario.node[40].nic.mac1609_4 	DroppedPacketsInMac 	0
scalar RSUExampleScenario.node[40].nic.mac1609_4 	TooLittleTime 	0
scalar RSUExampleScenario.node[40].nic.mac1609_4 	TimesIntoBackoff 	2
scalar RSUExampleScenario.node[40].nic.mac1609_4 	SlotsBackoff 	13
scalar RSUExampleScenario.node[40].nic.mac1609_4 	NumInternalContention 	0
scalar RSUExampleScenario.node[40].nic.mac1609_4 	totalBusyTime 	0.002113014381
scalar RSUExampleScenario.node[40].veinsmobility 	startTime 	74
scalar RSUExampleScenario.node[40].veinsmobility 	totalTime 	680
scalar RSUExampleScenario.node[40].veinsmobility 	stopTime 	755
scalar RSUExampleScenario.node[40].veinsmobility 	minSpeed 	0
scalar RSUExampleScenario.node[40].veinsmobility 	maxSpeed 	16.634515265524
scalar RSUExampleScenario.node[40].veinsmobility 	totalDistance 	3253.8742523072
scalar RSUExampleScenario.node[40].veinsmobility 	totalCO2Emission 	1202.2795478824
scalar RSUExampleScenario.node[35].nic.phy80211p 	busyTime 	3.5965417867435e-06
scalar RSUExampleScenario.node[35].nic.mac1609_4 	ReceivedUnicastPackets 	0
scalar RSUExampleScenario.node[35].nic.mac1609_4 	ReceivedBroadcasts 	18
scalar RSUExampleScenario.node[35].nic.mac1609_4 	SentPackets 	1
scalar RSUExampleScenario.node[35].nic.mac1609_4 	SNIRLostPackets 	8
scalar RSUExampleScenario.node[35].nic.mac1609_4 	RXTXLostPackets 	0
scalar RSUExampleScenario.node[35].nic.mac1609_4 	TotalLostPackets 	8
scalar RSUExampleScenario.node[35].nic.mac1609_4 	DroppedPacketsInMac 	0
scalar RSUExampleScenario.node[35].nic.mac1609_4 	TooLittleTime 	0
scalar RSUExampleScenario.node[35].nic.mac1609_4 	TimesIntoBackoff 	2
scalar RSUExampleScenario.node[35].nic.mac1609_4 	SlotsBackoff 	13
scalar RSUExampleScenario.node[35].nic.mac1609_4 	NumInternalContention 	0
scalar RSUExampleScenario.node[35].nic.mac1609_4 	totalBusyTime 	0.002113
scalar RSUExampleScenario.node[35].veinsmobility 	startTime 	64
scalar RSUExampleScenario.node[35].veinsmobility 	totalTime 	693
scalar RSUExampleScenario.node[35].veinsmobility 	stopTime 	758
scalar RSUExampleScenario.node[35].veinsmobility 	minSpeed 	0
scalar RSUExampleScenario.node[35].veinsmobility 	maxSpeed 	16.657620351464
scalar RSUExampleScenario.node[35].veinsmobility 	totalDistance 	3258.4053129961
scalar RSUExampleScenario.node[35].veinsmobility 	totalCO2Emission 	1263.9131640818
scalar RSUExampleScenario.node[64].nic.phy80211p 	busyTime 	4.8839427662957e-06
scalar RSUExampleScenario.node[64].nic.mac1609_4 	ReceivedUnicastPackets 	0
scalar RSUExampleScenario.node[64].nic.mac1609_4 	ReceivedBroadcasts 	16
scalar RSUExampleScenario.node[64].nic.mac1609_4 	SentPackets 	1
scalar RSUExampleScenario.node[64].nic.mac1609_4 	SNIRLostPackets 	16
scalar RSUExampleScenario.node[64].nic.mac1609_4 	RXTXLostPackets 	1
scalar RSUExampleScenario.node[64].nic.mac1609_4 	TotalLostPackets 	17
scalar RSUExampleScenario.node[64].nic.mac1609_4 	DroppedPacketsInMac 	0
scalar RSUExampleScenario.node[64].nic.mac1609_4 	TooLittleTime 	0
scalar RSUExampleScenario.node[64].nic.mac1609_4 	TimesIntoBackoff 	1
scalar RSUExampleScenario.node[64].nic.mac1609_4 	SlotsBackoff 	0
scalar RSUExampleScenario.node[64].nic.mac1609_4 	NumInternalContention 	0
scalar RSUExampleScenario.node[64].nic.mac1609_4 	totalBusyTime 	0.002305
scalar RSUExampleScenario.node[64].veinsmobility 	startTime 	131
scalar RSUExampleScenario.node[64].veinsmobility 	totalTime 	628
scalar RSUExampleScenario.node[64].veinsmobility 	stopTime 	760
scalar RSUExampleScenario.node[64].veinsmobility 	minSpeed 	0
scalar RSUExampleScenario.node[64].veinsmobility 	maxSpeed 	25.721310070182
scalar RSUExampleScenario.node[64].veinsmobility 	totalDistance 	3403.2814172204
scalar RSUExampleScenario.node[64].veinsmobility 	totalCO2Emission 	1399.2194637488
scalar RSUExampleScenario.node[34].nic.phy80211p 	busyTime 	3.2914285714286e-06
scalar RSUExampleScenario.node[34].nic.mac1609_4 	ReceivedUnicastPackets 	0
scalar RSUExampleScenario.node[34].nic.mac1609_4 	ReceivedBroadcasts 	20
scalar RSUExampleScenario.node[34].nic.mac1609_4 	SentPackets 	1
scalar RSUExampleScenario.node[34].nic.mac1609_4 	SNIRLostPackets 	4
scalar RSUExampleScenario.node[34].nic.mac1609_4 	RXTXLostPackets 	3
scalar RSUExampleScenario.node[34].nic.mac1609_4 	TotalLostPackets 	7
scalar RSUExampleScenario.node[34].nic.mac1609_4 	DroppedPacketsInMac 	0
scalar RSUExampleScenario.node[34].nic.mac1609_4 	TooLittleTime 	0
scalar RSUExampleScenario.node[34].nic.mac1609_4 	TimesIntoBackoff 	2
scalar RSUExampleScenario.node[34].nic.mac1609_4 	SlotsBackoff 	8
scalar RSUExampleScenario.node[34].nic.mac1609_4 	NumInternalContention 	0
scalar RSUExampleScenario.node[34].nic.mac1609_4 	totalBusyTime 	0.002209
scalar RSUExampleScenario.node[34].veinsmobility 	startTime 	62
scalar RSUExampleScenario.node[34].veinsmobility 	totalTime 	699
scalar RSUExampleScenario.node[34].veinsmobility 	stopTime 	762
scalar RSUExampleScenario.node[34].veinsmobility 	minSpeed 	0
scalar RSUExampleScenario.node[34].veinsmobility 	maxSpeed 	16.623306045914
scalar RSUExampleScenario.node[34].veinsmobility 	totalDistance 	3251.9408398052
scalar RSUExampleScenario.node[34].veinsmobility 	totalCO2Emission 	1260.8107109442
scalar RSUExampleScenario.node[36].nic.phy80211p 	busyTime 	3.5708154506438e-06
scalar RSUExampleScenario.node[36].nic.mac1609_4 	ReceivedUnicastPackets 	0
scalar RSUExampleScenario.node[36].nic.mac1609_4 	ReceivedBroadcasts 	18
scalar RSUExampleScenario.node[36].nic.mac1609_4 	SentPackets 	1
scalar RSUExampleScenario.node[36].nic.mac1609_4 	SNIRLostPackets 	8
scalar RSUExampleScenario.node[36].nic.mac1609_4 	RXTXLostPackets 	0
scalar RSUExampleScenario.node[36].nic.mac1609_4 	TotalLostPackets 	8
scalar RSUExampleScenario.node[36].nic.mac1609_4 	DroppedPacketsInMac 	0
scalar RSUExampleScenario.node[36].nic.mac1609_4 	TooLittleTime 	0
scalar RSUExampleScenario.node[36].nic.mac1609_4 	TimesIntoBackoff 	1
scalar RSUExampleScenario.node[36].nic.mac1609_4 	SlotsBackoff 	0
scalar RSUExampleScenario.node[36].nic.mac1609_4 	NumInternalContention 	0
scalar RSUExampleScenario.node[36].nic.mac1609_4 	totalBusyTime 	0.00211320391
scalar RSUExampleScenario.node[36].veinsmobility 	startTime 	66
scalar RSUExampleScenario.node[36].veinsmobility 	totalTime 	698
scalar RSUExampleScenario.node[36].veinsmobility 	stopTime 	765
scalar RSUExampleScenario.node[36].veinsmobility 	minSpeed 	0
scalar RSUExampleScenario.node[36].veinsmobility 	maxSpeed 	16.669296607687
scalar RSUExampleScenario.node[36].veinsmobility 	totalDistance 	3256.4100590202
scalar RSUExampleScenario.node[36].veinsmobility 	totalCO2Emission 	1246.9726440157
scalar RSUExampleScenario.node[97].nic.phy80211p 	busyTime 	7.1175406871609e-06
scalar RSUExampleScenario.node[97].nic.mac1609_4 	ReceivedUnicastPackets 	0
scalar RSUExampleScenario.node[97].nic.mac1609_4 	ReceivedBroadcasts 	33
scalar RSUExampleScenario.node[97].nic.mac1609_4 	SentPackets 	1
scalar RSUExampleScenario.node[97].nic.mac1609_4 	SNIRLostPackets 	8
scalar RSUExampleScenario.node[97].nic.mac1609_4 	RXTXLostPackets 	0
scalar RSUExampleScenario.node[97].nic.mac1609_4 	TotalLostPackets 	8
scalar RSUExampleScenario.node[97].nic.mac1609_4 	DroppedPacketsInMac 	0
scalar RSUExampleScenario.node[97].nic.mac1609_4 	TooLittleTime 	0
scalar RSUExampleScenario.node[97].nic.mac1609_4 	TimesIntoBackoff 	1
scalar RSUExampleScenario.node[97].nic.mac1609_4 	SlotsBackoff 	1
scalar RSUExampleScenario.node[97].nic.mac1609_4 	NumInternalContention 	0
scalar RSUExampleScenario.node[97].nic.mac1609_4 	totalBusyTime 	0.003649
scalar RSUExampleScenario.node[97].veinsmobility 	startTime 	218
scalar RSUExampleScenario.node[97].veinsmobility 	totalTime 	552
scalar RSUExampleScenario.node[97].veinsmobility 	stopTime 	771
scalar RSUExampleScenario.node[97].veinsmobility 	minSpeed 	0
scalar RSUExampleScenario.node[97].veinsmobility 	maxSpeed 	27.776900428691
scalar RSUExampleScenario.node[97].veinsmobility 	totalDistance 	3389.9645494517
scalar RSUExampleScenario.node[97].veinsmobility 	totalCO2Emission 	1044.124016191
scalar RSUExampleScenario.node[98].nic.phy80211p 	busyTime 	8.1297297297297e-06
scalar RSUExampleScenario.node[98].nic.mac1609_4 	ReceivedUnicastPackets 	0
scalar RSUExampleScenario.node[98].nic.mac1609_4 	ReceivedBroadcasts 	35
scalar RSUExampleScenario.node[98].nic.mac1609_4 	SentPackets 	1
scalar RSUExampleScenario.node[98].nic.mac1609_4 	SNIRLostPackets 	12
scalar RSUExampleScenario.node[98].nic.mac1609_4 	RXTXLostPackets 	1
scalar RSUExampleScenario.node[98].nic.mac1609_4 	TotalLostPackets 	13
scalar RSUExampleScenario.node[98].nic.mac1609_4 	DroppedPacketsInMac 	0
scalar RSUExampleScenario.node[98].nic.mac1609_4 	TooLittleTime 	0
scalar RSUExampleScenario.node[98].nic.mac1609_4 	TimesIntoBackoff 	2
scalar RSUExampleScenario.node[98].nic.mac1609_4 	SlotsBackoff 	7
scalar RSUExampleScenario.node[98].nic.mac1609_4 	NumInternalContention 	0
scalar RSUExampleScenario.node[98].nic.mac1609_4 	totalBusyTime 	0.004033
scalar RSUExampleScenario.node[98].veinsmobility 	startTime 	222
scalar RSUExampleScenario.node[98].veinsmobility 	totalTime 	554
scalar RSUExampleScenario.node[98].veinsmobility 	stopTime 	777
scalar RSUExampleScenario.node[98].veinsmobility 	minSpeed 	0
scalar RSUExampleScenario.node[98].veinsmobility 	maxSpeed 	27.772260048733
scalar RSUExampleScenario.node[98].veinsmobility 	totalDistance 	3394.7625773921
scalar RSUExampleScenario.node[98].veinsmobility 	totalCO2Emission 	1057.3648544302
scalar RSUExampleScenario.node[38].nic.phy80211p 	busyTime 	3.5204513399154e-06
scalar RSUExampleScenario.node[38].nic.mac1609_4 	ReceivedUnicastPackets 	0
scalar RSUExampleScenario.node[38].nic.mac1609_4 	ReceivedBroadcasts 	18
scalar RSUExampleScenario.node[38].nic.mac1609_4 	SentPackets 	1
scalar RSUExampleScenario.node[38].nic.mac1609_4 	SNIRLostPackets 	8
scalar RSUExampleScenario.node[38].nic.mac1609_4 	RXTXLostPackets 	0
scalar RSUExampleScenario.node[38].nic.mac1609_4 	TotalLostPackets 	8
scalar RSUExampleScenario.node[38].nic.mac1609_4 	DroppedPacketsInMac 	0
scalar RSUExampleScenario.node[38].nic.mac1609_4 	TooLittleTime 	0
scalar RSUExampleScenario.node[38].nic.mac1609_4 	TimesIntoBackoff 	1
scalar RSUExampleScenario.node[38].nic.mac1609_4 	SlotsBackoff 	0
scalar RSUExampleScenario.node[38].nic.mac1609_4 	NumInternalContention 	0
scalar RSUExampleScenario.node[38].nic.mac1609_4 	totalBusyTime 	0.002113088323
scalar RSUExampleScenario.node[38].veinsmobility 	startTime 	70
scalar RSUExampleScenario.node[38].veinsmobility 	totalTime 	708
scalar RSUExampleScenario.node[38].veinsmobility 	stopTime 	779
scalar RSUExampleScenario.node[38].veinsmobility 	minSpeed 	0
scalar RSUExampleScenario.node[38].veinsmobility 	maxSpeed 	16.632008796483
scalar RSUExampleScenario.node[38].veinsmobility 	totalDistance 	3254.9245652845
scalar RSUExampleScenario.node[38].veinsmobility 	totalCO2Emission 	1246.2338727245
scalar RSUExampleScenario.node[37].nic.phy80211p 	busyTime 	3.5007012622721e-06
scalar RSUExampleScenario.node[37].nic.mac1609_4 	ReceivedUnicastPackets 	0
scalar RSUExampleScenario.node[37].nic.mac1609_4 	ReceivedBroadcasts 	18
scalar RSUExampleScenario.node[37].nic.mac1609_4 	SentPackets 	1
scalar RSUExampleScenario.node[37].nic.mac1609_4 	SNIRLostPackets 	8
scalar RSUExampleScenario.node[37].nic.mac1609_4 	RXTXLostPackets 	0
scalar RSUExampleScenario.node[37].nic.mac1609_4 	TotalLostPackets 	8
scalar RSUExampleScenario.node[37].nic.mac1609_4 	DroppedPacketsInMac 	0
scalar RSUExampleScenario.node[37].nic.mac1609_4 	TooLittleTime 	0
scalar RSUExampleScenario.node[37].nic.mac1609_4 	TimesIntoBackoff 	1
scalar RSUExampleScenario.node[37].nic.mac1609_4 	SlotsBackoff 	5
scalar RSUExampleScenario.node[37].nic.mac1609_4 	NumInternalContention 	0
scalar RSUExampleScenario.node[37].nic.mac1609_4 	totalBusyTime 	0.002113145613
scalar RSUExampleScenario.node[37].veinsmobility 	startTime 	68
scalar RSUExampleScenario.node[37].veinsmobility 	totalTime 	712
scalar RSUExampleScenario.node[37].veinsmobility 	stopTime 	781
scalar RSUExampleScenario.node[37].veinsmobility 	minSpeed 	0
scalar RSUExampleScenario.node[37].veinsmobility 	maxSpeed 	16.665396585083
scalar RSUExampleScenario.node[37].veinsmobility 	totalDistance 	3251.7840594432
scalar RSUExampleScenario.node[37].veinsmobility 	totalCO2Emission 	1234.0568470844
scalar RSUExampleScenario.node[42].nic.phy80211p 	busyTime 	3.8073654390935e-06
scalar RSUExampleScenario.node[42].nic.mac1609_4 	ReceivedUnicastPackets 	0
[...]
scalar RSUExampleScenario.node[379].veinsmobility 	maxSpeed 	27.755014101089
scalar RSUExampleScenario.node[379].veinsmobility 	totalDistance 	3396.95780699
scalar RSUExampleScenario.node[379].veinsmobility 	totalCO2Emission 	1164.3296479411
scalar RSUExampleScenario.node[388].nic.phy80211p 	busyTime 	1.4769230769231e-07
scalar RSUExampleScenario.node[388].nic.mac1609_4 	ReceivedUnicastPackets 	0
scalar RSUExampleScenario.node[388].nic.mac1609_4 	ReceivedBroadcasts 	1
scalar RSUExampleScenario.node[388].nic.mac1609_4 	SentPackets 	1
scalar RSUExampleScenario.node[388].nic.mac1609_4 	SNIRLostPackets 	0
scalar RSUExampleScenario.node[388].nic.mac1609_4 	RXTXLostPackets 	0
scalar RSUExampleScenario.node[388].nic.mac1609_4 	TotalLostPackets 	0
scalar RSUExampleScenario.node[388].nic.mac1609_4 	DroppedPacketsInMac 	0
scalar RSUExampleScenario.node[388].nic.mac1609_4 	TooLittleTime 	0
scalar RSUExampleScenario.node[388].nic.mac1609_4 	TimesIntoBackoff 	1
scalar RSUExampleScenario.node[388].nic.mac1609_4 	SlotsBackoff 	4
scalar RSUExampleScenario.node[388].nic.mac1609_4 	NumInternalContention 	0
scalar RSUExampleScenario.node[388].nic.mac1609_4 	totalBusyTime 	0.000193
scalar RSUExampleScenario.node[388].veinsmobility 	startTime 	1238
scalar RSUExampleScenario.node[388].veinsmobility 	totalTime 	649
scalar RSUExampleScenario.node[388].veinsmobility 	stopTime 	1888
scalar RSUExampleScenario.node[388].veinsmobility 	minSpeed 	0
scalar RSUExampleScenario.node[388].veinsmobility 	maxSpeed 	27.778015482537
scalar RSUExampleScenario.node[388].veinsmobility 	totalDistance 	3397.4873121547
scalar RSUExampleScenario.node[388].veinsmobility 	totalCO2Emission 	1145.6774569124
scalar RSUExampleScenario.node[389].nic.phy80211p 	busyTime 	1.4746543778802e-07
scalar RSUExampleScenario.node[389].nic.mac1609_4 	ReceivedUnicastPackets 	0
scalar RSUExampleScenario.node[389].nic.mac1609_4 	ReceivedBroadcasts 	1
scalar RSUExampleScenario.node[389].nic.mac1609_4 	SentPackets 	1
scalar RSUExampleScenario.node[389].nic.mac1609_4 	SNIRLostPackets 	0
scalar RSUExampleScenario.node[389].nic.mac1609_4 	RXTXLostPackets 	0
scalar RSUExampleScenario.node[389].nic.mac1609_4 	TotalLostPackets 	0
scalar RSUExampleScenario.node[389].nic.mac1609_4 	DroppedPacketsInMac 	0
scalar RSUExampleScenario.node[389].nic.mac1609_4 	TooLittleTime 	0
scalar RSUExampleScenario.node[389].nic.mac1609_4 	TimesIntoBackoff 	1
scalar RSUExampleScenario.node[389].nic.mac1609_4 	SlotsBackoff 	7
scalar RSUExampleScenario.node[389].nic.mac1609_4 	NumInternalContention 	0
scalar RSUExampleScenario.node[389].nic.mac1609_4 	totalBusyTime 	0.000193
scalar RSUExampleScenario.node[389].veinsmobility 	startTime 	1240
scalar RSUExampleScenario.node[389].veinsmobility 	totalTime 	650
scalar RSUExampleScenario.node[389].veinsmobility 	stopTime 	1891
scalar RSUExampleScenario.node[389].veinsmobility 	minSpeed 	0
scalar RSUExampleScenario.node[389].veinsmobility 	maxSpeed 	27.762155182514
scalar RSUExampleScenario.node[389].veinsmobility 	totalDistance 	3397.4631799257
scalar RSUExampleScenario.node[389].veinsmobility 	totalCO2Emission 	1151.955578945
scalar RSUExampleScenario.node[382].nic.phy80211p 	busyTime 	2.2823179791976e-06
scalar RSUExampleScenario.node[382].nic.mac1609_4 	ReceivedUnicastPackets 	0
scalar RSUExampleScenario.node[382].nic.mac1609_4 	ReceivedBroadcasts 	16
scalar RSUExampleScenario.node[382].nic.mac1609_4 	SentPackets 	1
scalar RSUExampleScenario.node[382].nic.mac1609_4 	SNIRLostPackets 	0
scalar RSUExampleScenario.node[382].nic.mac1609_4 	RXTXLostPackets 	0
scalar RSUExampleScenario.node[382].nic.mac1609_4 	TotalLostPackets 	0
scalar RSUExampleScenario.node[382].nic.mac1609_4 	DroppedPacketsInMac 	0
scalar RSUExampleScenario.node[382].nic.mac1609_4 	TooLittleTime 	0
scalar RSUExampleScenario.node[382].nic.mac1609_4 	TimesIntoBackoff 	1
scalar RSUExampleScenario.node[382].nic.mac1609_4 	SlotsBackoff 	6
scalar RSUExampleScenario.node[382].nic.mac1609_4 	NumInternalContention 	0
scalar RSUExampleScenario.node[382].nic.mac1609_4 	totalBusyTime 	0.001633
scalar RSUExampleScenario.node[382].veinsmobility 	startTime 	1226
scalar RSUExampleScenario.node[382].veinsmobility 	totalTime 	672
scalar RSUExampleScenario.node[382].veinsmobility 	stopTime 	1899
scalar RSUExampleScenario.node[382].veinsmobility 	minSpeed 	0
scalar RSUExampleScenario.node[382].veinsmobility 	maxSpeed 	16.663190529146
scalar RSUExampleScenario.node[382].veinsmobility 	totalDistance 	3647.0054353572
scalar RSUExampleScenario.node[382].veinsmobility 	totalCO2Emission 	1174.2101861975
scalar RSUExampleScenario.node[383].nic.phy80211p 	busyTime 	2.2688330871492e-06
scalar RSUExampleScenario.node[383].nic.mac1609_4 	ReceivedUnicastPackets 	0
scalar RSUExampleScenario.node[383].nic.mac1609_4 	ReceivedBroadcasts 	16
scalar RSUExampleScenario.node[383].nic.mac1609_4 	SentPackets 	1
scalar RSUExampleScenario.node[383].nic.mac1609_4 	SNIRLostPackets 	0
scalar RSUExampleScenario.node[383].nic.mac1609_4 	RXTXLostPackets 	0
scalar RSUExampleScenario.node[383].nic.mac1609_4 	TotalLostPackets 	0
scalar RSUExampleScenario.node[383].nic.mac1609_4 	DroppedPacketsInMac 	0
scalar RSUExampleScenario.node[383].nic.mac1609_4 	TooLittleTime 	0
scalar RSUExampleScenario.node[383].nic.mac1609_4 	TimesIntoBackoff 	1
scalar RSUExampleScenario.node[383].nic.mac1609_4 	SlotsBackoff 	4
scalar RSUExampleScenario.node[383].nic.mac1609_4 	NumInternalContention 	0
scalar RSUExampleScenario.node[383].nic.mac1609_4 	totalBusyTime 	0.001633
scalar RSUExampleScenario.node[383].veinsmobility 	startTime 	1228
scalar RSUExampleScenario.node[383].veinsmobility 	totalTime 	676
scalar RSUExampleScenario.node[383].veinsmobility 	stopTime 	1905
scalar RSUExampleScenario.node[383].veinsmobility 	minSpeed 	0
scalar RSUExampleScenario.node[383].veinsmobility 	maxSpeed 	16.661243198289
scalar RSUExampleScenario.node[383].veinsmobility 	totalDistance 	3648.729488677
scalar RSUExampleScenario.node[383].veinsmobility 	totalCO2Emission 	1220.0490602422
scalar RSUExampleScenario.node[384].nic.phy80211p 	busyTime 	2.2621502209131e-06
scalar RSUExampleScenario.node[384].nic.mac1609_4 	ReceivedUnicastPackets 	0
scalar RSUExampleScenario.node[384].nic.mac1609_4 	ReceivedBroadcasts 	16
scalar RSUExampleScenario.node[384].nic.mac1609_4 	SentPackets 	1
scalar RSUExampleScenario.node[384].nic.mac1609_4 	SNIRLostPackets 	0
scalar RSUExampleScenario.node[384].nic.mac1609_4 	RXTXLostPackets 	0
scalar RSUExampleScenario.node[384].nic.mac1609_4 	TotalLostPackets 	0
scalar RSUExampleScenario.node[384].nic.mac1609_4 	DroppedPacketsInMac 	0
scalar RSUExampleScenario.node[384].nic.mac1609_4 	TooLittleTime 	0
scalar RSUExampleScenario.node[384].nic.mac1609_4 	TimesIntoBackoff 	1
scalar RSUExampleScenario.node[384].nic.mac1609_4 	SlotsBackoff 	4
scalar RSUExampleScenario.node[384].nic.mac1609_4 	NumInternalContention 	0
scalar RSUExampleScenario.node[384].nic.mac1609_4 	totalBusyTime 	0.001633
scalar RSUExampleScenario.node[384].veinsmobility 	startTime 	1230
scalar RSUExampleScenario.node[384].veinsmobility 	totalTime 	678
scalar RSUExampleScenario.node[384].veinsmobility 	stopTime 	1909
scalar RSUExampleScenario.node[384].veinsmobility 	minSpeed 	0
scalar RSUExampleScenario.node[384].veinsmobility 	maxSpeed 	16.668522697429
scalar RSUExampleScenario.node[384].veinsmobility 	totalDistance 	3646.5071940531
scalar RSUExampleScenario.node[384].veinsmobility 	totalCO2Emission 	1214.1304911086
scalar RSUExampleScenario.node[385].nic.phy80211p 	busyTime 	2.2555066079295e-06
scalar RSUExampleScenario.node[385].nic.mac1609_4 	ReceivedUnicastPackets 	0
scalar RSUExampleScenario.node[385].nic.mac1609_4 	ReceivedBroadcasts 	16
scalar RSUExampleScenario.node[385].nic.mac1609_4 	SentPackets 	1
scalar RSUExampleScenario.node[385].nic.mac1609_4 	SNIRLostPackets 	0
scalar RSUExampleScenario.node[385].nic.mac1609_4 	RXTXLostPackets 	0
scalar RSUExampleScenario.node[385].nic.mac1609_4 	TotalLostPackets 	0
scalar RSUExampleScenario.node[385].nic.mac1609_4 	DroppedPacketsInMac 	0
scalar RSUExampleScenario.node[385].nic.mac1609_4 	TooLittleTime 	0
scalar RSUExampleScenario.node[385].nic.mac1609_4 	TimesIntoBackoff 	1
scalar RSUExampleScenario.node[385].nic.mac1609_4 	SlotsBackoff 	6
scalar RSUExampleScenario.node[385].nic.mac1609_4 	NumInternalContention 	0
scalar RSUExampleScenario.node[385].nic.mac1609_4 	totalBusyTime 	0.001633
scalar RSUExampleScenario.node[385].veinsmobility 	startTime 	1232
scalar RSUExampleScenario.node[385].veinsmobility 	totalTime 	680
scalar RSUExampleScenario.node[385].veinsmobility 	stopTime 	1913
scalar RSUExampleScenario.node[385].veinsmobility 	minSpeed 	0
scalar RSUExampleScenario.node[385].veinsmobility 	maxSpeed 	16.666848816586
scalar RSUExampleScenario.node[385].veinsmobility 	totalDistance 	3643.3097942458
scalar RSUExampleScenario.node[385].veinsmobility 	totalCO2Emission 	1192.8620710917
scalar RSUExampleScenario.node[386].nic.phy80211p 	busyTime 	2.2489019033675e-06
scalar RSUExampleScenario.node[386].nic.mac1609_4 	ReceivedUnicastPackets 	0
scalar RSUExampleScenario.node[386].nic.mac1609_4 	ReceivedBroadcasts 	16
scalar RSUExampleScenario.node[386].nic.mac1609_4 	SentPackets 	1
scalar RSUExampleScenario.node[386].nic.mac1609_4 	SNIRLostPackets 	0
scalar RSUExampleScenario.node[386].nic.mac1609_4 	RXTXLostPackets 	0
scalar RSUExampleScenario.node[386].nic.mac1609_4 	TotalLostPackets 	0
scalar RSUExampleScenario.node[386].nic.mac1609_4 	DroppedPacketsInMac 	0
scalar RSUExampleScenario.node[386].nic.mac1609_4 	TooLittleTime 	0
scalar RSUExampleScenario.node[386].nic.mac1609_4 	TimesIntoBackoff 	2
scalar RSUExampleScenario.node[386].nic.mac1609_4 	SlotsBackoff 	3
scalar RSUExampleScenario.node[386].nic.mac1609_4 	NumInternalContention 	0
scalar RSUExampleScenario.node[386].nic.mac1609_4 	totalBusyTime 	0.001633
scalar RSUExampleScenario.node[386].veinsmobility 	startTime 	1234
scalar RSUExampleScenario.node[386].veinsmobility 	totalTime 	682
scalar RSUExampleScenario.node[386].veinsmobility 	stopTime 	1917
scalar RSUExampleScenario.node[386].veinsmobility 	minSpeed 	0
scalar RSUExampleScenario.node[386].veinsmobility 	maxSpeed 	16.667394326658
scalar RSUExampleScenario.node[386].veinsmobility 	totalDistance 	3649.6073583161
scalar RSUExampleScenario.node[386].veinsmobility 	totalCO2Emission 	1230.6731076828
scalar RSUExampleScenario.node[387].nic.phy80211p 	busyTime 	2.2423357664234e-06
scalar RSUExampleScenario.node[387].nic.mac1609_4 	ReceivedUnicastPackets 	0
scalar RSUExampleScenario.node[387].nic.mac1609_4 	ReceivedBroadcasts 	16
scalar RSUExampleScenario.node[387].nic.mac1609_4 	SentPackets 	1
scalar RSUExampleScenario.node[387].nic.mac1609_4 	SNIRLostPackets 	0
scalar RSUExampleScenario.node[387].nic.mac1609_4 	RXTXLostPackets 	0
scalar RSUExampleScenario.node[387].nic.mac1609_4 	TotalLostPackets 	0
scalar RSUExampleScenario.node[387].nic.mac1609_4 	DroppedPacketsInMac 	0
scalar RSUExampleScenario.node[387].nic.mac1609_4 	TooLittleTime 	0
scalar RSUExampleScenario.node[387].nic.mac1609_4 	TimesIntoBackoff 	1
scalar RSUExampleScenario.node[387].nic.mac1609_4 	SlotsBackoff 	4
scalar RSUExampleScenario.node[387].nic.mac1609_4 	NumInternalContention 	0
scalar RSUExampleScenario.node[387].nic.mac1609_4 	totalBusyTime 	0.001633
scalar RSUExampleScenario.node[387].veinsmobility 	startTime 	1236
scalar RSUExampleScenario.node[387].veinsmobility 	totalTime 	684
scalar RSUExampleScenario.node[387].veinsmobility 	stopTime 	1921
scalar RSUExampleScenario.node[387].veinsmobility 	minSpeed 	0
scalar RSUExampleScenario.node[387].veinsmobility 	maxSpeed 	16.667458521253
scalar RSUExampleScenario.node[387].veinsmobility 	totalDistance 	3651.0249118655
scalar RSUExampleScenario.node[387].veinsmobility 	totalCO2Emission 	1207.5342286319
scalar RSUExampleScenario.node[358].nic.phy80211p 	busyTime 	5.0594594594595e-06
scalar RSUExampleScenario.node[358].nic.mac1609_4 	ReceivedUnicastPackets 	0
scalar RSUExampleScenario.node[358].nic.mac1609_4 	ReceivedBroadcasts 	35
scalar RSUExampleScenario.node[358].nic.mac1609_4 	SentPackets 	1
scalar RSUExampleScenario.node[358].nic.mac1609_4 	SNIRLostPackets 	4
scalar RSUExampleScenario.node[358].nic.mac1609_4 	RXTXLostPackets 	1
scalar RSUExampleScenario.node[358].nic.mac1609_4 	TotalLostPackets 	5
scalar RSUExampleScenario.node[358].nic.mac1609_4 	DroppedPacketsInMac 	0
scalar RSUExampleScenario.node[358].nic.mac1609_4 	TooLittleTime 	0
scalar RSUExampleScenario.node[358].nic.mac1609_4 	TimesIntoBackoff 	2
scalar RSUExampleScenario.node[358].nic.mac1609_4 	SlotsBackoff 	8
scalar RSUExampleScenario.node[358].nic.mac1609_4 	NumInternalContention 	0
scalar RSUExampleScenario.node[358].nic.mac1609_4 	totalBusyTime 	0.003649
scalar RSUExampleScenario.node[358].veinsmobility 	startTime 	1183
scalar RSUExampleScenario.node[358].veinsmobility 	totalTime 	739
scalar RSUExampleScenario.node[358].veinsmobility 	stopTime 	1923
scalar RSUExampleScenario.node[358].veinsmobility 	minSpeed 	0
scalar RSUExampleScenario.node[358].veinsmobility 	maxSpeed 	16.667690238357
scalar RSUExampleScenario.node[358].veinsmobility 	totalDistance 	3755.3497229861
scalar RSUExampleScenario.node[358].veinsmobility 	totalCO2Emission 	1344.0926894701
scalar RSUExampleScenario.node[359].nic.phy80211p 	busyTime 	5.1821862348178e-06
scalar RSUExampleScenario.node[359].nic.mac1609_4 	ReceivedUnicastPackets 	0
scalar RSUExampleScenario.node[359].nic.mac1609_4 	ReceivedBroadcasts 	34
scalar RSUExampleScenario.node[359].nic.mac1609_4 	SentPackets 	1
scalar RSUExampleScenario.node[359].nic.mac1609_4 	SNIRLostPackets 	6
scalar RSUExampleScenario.node[359].nic.mac1609_4 	RXTXLostPackets 	0
scalar RSUExampleScenario.node[359].nic.mac1609_4 	TotalLostPackets 	6
scalar RSUExampleScenario.node[359].nic.mac1609_4 	DroppedPacketsInMac 	0
scalar RSUExampleScenario.node[359].nic.mac1609_4 	TooLittleTime 	0
scalar RSUExampleScenario.node[359].nic.mac1609_4 	TimesIntoBackoff 	2
scalar RSUExampleScenario.node[359].nic.mac1609_4 	SlotsBackoff 	7
scalar RSUExampleScenario.node[359].nic.mac1609_4 	NumInternalContention 	0
scalar RSUExampleScenario.node[359].nic.mac1609_4 	totalBusyTime 	0.003649
scalar RSUExampleScenario.node[359].veinsmobility 	startTime 	1185
scalar RSUExampleScenario.node[359].veinsmobility 	totalTime 	740
scalar RSUExampleScenario.node[359].veinsmobility 	stopTime 	1926
scalar RSUExampleScenario.node[359].veinsmobility 	minSpeed 	0
scalar RSUExampleScenario.node[359].veinsmobility 	maxSpeed 	16.657758989027
scalar RSUExampleScenario.node[359].veinsmobility 	totalDistance 	3761.5710845231
scalar RSUExampleScenario.node[359].veinsmobility 	totalCO2Emission 	1342.4324603322
scalar RSUExampleScenario.node[360].nic.phy80211p 	busyTime 	5.1752021563342e-06
scalar RSUExampleScenario.node[360].nic.mac1609_4 	ReceivedUnicastPackets 	0
scalar RSUExampleScenario.node[360].nic.mac1609_4 	ReceivedBroadcasts 	34
scalar RSUExampleScenario.node[360].nic.mac1609_4 	SentPackets 	1
scalar RSUExampleScenario.node[360].nic.mac1609_4 	SNIRLostPackets 	6
scalar RSUExampleScenario.node[360].nic.mac1609_4 	RXTXLostPackets 	0
scalar RSUExampleScenario.node[360].nic.mac1609_4 	TotalLostPackets 	6
scalar RSUExampleScenario.node[360].nic.mac1609_4 	DroppedPacketsInMac 	0
scalar RSUExampleScenario.node[360].nic.mac1609_4 	TooLittleTime 	0
scalar RSUExampleScenario.node[360].nic.mac1609_4 	TimesIntoBackoff 	1
scalar RSUExampleScenario.node[360].nic.mac1609_4 	SlotsBackoff 	0
scalar RSUExampleScenario.node[360].nic.mac1609_4 	NumInternalContention 	0
scalar RSUExampleScenario.node[360].nic.mac1609_4 	totalBusyTime 	0.003649179593
scalar RSUExampleScenario.node[360].veinsmobility 	startTime 	1186
scalar RSUExampleScenario.node[360].veinsmobility 	totalTime 	741
scalar RSUExampleScenario.node[360].veinsmobility 	stopTime 	1928
scalar RSUExampleScenario.node[360].veinsmobility 	minSpeed 	0
scalar RSUExampleScenario.node[360].veinsmobility 	maxSpeed 	16.669984435076
scalar RSUExampleScenario.node[360].veinsmobility 	totalDistance 	3759.429540547
scalar RSUExampleScenario.node[360].veinsmobility 	totalCO2Emission 	1365.1761392032
scalar RSUExampleScenario.node[361].nic.phy80211p 	busyTime 	5.1682368775236e-06
scalar RSUExampleScenario.node[361].nic.mac1609_4 	ReceivedUnicastPackets 	0
scalar RSUExampleScenario.node[361].nic.mac1609_4 	ReceivedBroadcasts 	34
scalar RSUExampleScenario.node[361].nic.mac1609_4 	SentPackets 	1
scalar RSUExampleScenario.node[361].nic.mac1609_4 	SNIRLostPackets 	6
scalar RSUExampleScenario.node[361].nic.mac1609_4 	RXTXLostPackets 	0
scalar RSUExampleScenario.node[361].nic.mac1609_4 	TotalLostPackets 	6
scalar RSUExampleScenario.node[361].nic.mac1609_4 	DroppedPacketsInMac 	0
scalar RSUExampleScenario.node[361].nic.mac1609_4 	TooLittleTime 	0
scalar RSUExampleScenario.node[361].nic.mac1609_4 	TimesIntoBackoff 	2
scalar RSUExampleScenario.node[361].nic.mac1609_4 	SlotsBackoff 	8
scalar RSUExampleScenario.node[361].nic.mac1609_4 	NumInternalContention 	0
scalar RSUExampleScenario.node[361].nic.mac1609_4 	totalBusyTime 	0.003649123146
scalar RSUExampleScenario.node[361].veinsmobility 	startTime 	1187
scalar RSUExampleScenario.node[361].veinsmobility 	totalTime 	742
scalar RSUExampleScenario.node[361].veinsmobility 	stopTime 	1930
scalar RSUExampleScenario.node[361].veinsmobility 	minSpeed 	0
scalar RSUExampleScenario.node[361].veinsmobility 	maxSpeed 	16.652607366182
scalar RSUExampleScenario.node[361].veinsmobility 	totalDistance 	3754.2767722521
scalar RSUExampleScenario.node[361].veinsmobility 	totalCO2Emission 	1366.9532324266
scalar RSUExampleScenario.node[362].nic.phy80211p 	busyTime 	5.1612903225806e-06
scalar RSUExampleScenario.node[362].nic.mac1609_4 	ReceivedUnicastPackets 	0
scalar RSUExampleScenario.node[362].nic.mac1609_4 	ReceivedBroadcasts 	34
scalar RSUExampleScenario.node[362].nic.mac1609_4 	SentPackets 	1
scalar RSUExampleScenario.node[362].nic.mac1609_4 	SNIRLostPackets 	6
scalar RSUExampleScenario.node[362].nic.mac1609_4 	RXTXLostPackets 	0
scalar RSUExampleScenario.node[362].nic.mac1609_4 	TotalLostPackets 	6
scalar RSUExampleScenario.node[362].nic.mac1609_4 	DroppedPacketsInMac 	0
scalar RSUExampleScenario.node[362].nic.mac1609_4 	TooLittleTime 	0
scalar RSUExampleScenario.node[362].nic.mac1609_4 	TimesIntoBackoff 	1
scalar RSUExampleScenario.node[362].nic.mac1609_4 	SlotsBackoff 	3
scalar RSUExampleScenario.node[362].nic.mac1609_4 	NumInternalContention 	0
scalar RSUExampleScenario.node[362].nic.mac1609_4 	totalBusyTime 	0.003649060075
scalar RSUExampleScenario.node[362].veinsmobility 	startTime 	1189
scalar RSUExampleScenario.node[362].veinsmobility 	totalTime 	743
scalar RSUExampleScenario.node[362].veinsmobility 	stopTime 	1933
scalar RSUExampleScenario.node[362].veinsmobility 	minSpeed 	0
scalar RSUExampleScenario.node[362].veinsmobility 	maxSpeed 	16.663032484772
scalar RSUExampleScenario.node[362].veinsmobility 	totalDistance 	3763.7502683588
scalar RSUExampleScenario.node[362].veinsmobility 	totalCO2Emission 	1364.7812580096
scalar RSUExampleScenario.rsu[0].nic.phy80211p 	busyTime 	7.2e-07
scalar RSUExampleScenario.rsu[0].nic.mac1609_4 	ReceivedUnicastPackets 	0
scalar RSUExampleScenario.rsu[0].nic.mac1609_4 	ReceivedBroadcasts 	46
scalar RSUExampleScenario.rsu[0].nic.mac1609_4 	SentPackets 	1
scalar RSUExampleScenario.rsu[0].nic.mac1609_4 	SNIRLostPackets 	29
scalar RSUExampleScenario.rsu[0].nic.mac1609_4 	RXTXLostPackets 	1
scalar RSUExampleScenario.rsu[0].nic.mac1609_4 	TotalLostPackets 	30
scalar RSUExampleScenario.rsu[0].nic.mac1609_4 	DroppedPacketsInMac 	0
scalar RSUExampleScenario.rsu[0].nic.mac1609_4 	TooLittleTime 	0
scalar RSUExampleScenario.rsu[0].nic.mac1609_4 	TimesIntoBackoff 	2
scalar RSUExampleScenario.rsu[0].nic.mac1609_4 	SlotsBackoff 	4
scalar RSUExampleScenario.rsu[0].nic.mac1609_4 	NumInternalContention 	0
scalar RSUExampleScenario.rsu[0].nic.mac1609_4 	totalBusyTime 	0.006817
