version 2
run debug-0-20161220-13:15:26-5092
attr configname debug
attr datetime 20161220-13:15:26
attr experiment debug
attr inifile omnetpp.ini
attr iterationvars ""
attr iterationvars2 $repetition=0
attr measurement ""
attr network RSUExampleScenario
attr processid 5092
attr repetition 0
attr replication #0
attr resultdir results
attr runnumber 0
attr seedset 0
param **.coreDebug false
param **.debug false
param *.**.nic.mac1609_4.bitrate 27Mbps
param *.**.nic.mac1609_4.txPower 20mW
param *.**.nic.mac1609_4.useServiceChannel false
param *.**.nic.phy80211p.analogueModels "xmldoc(\"config.xml\")"
param *.**.nic.phy80211p.decider "xmldoc(\"config.xml\")"
param *.**.nic.phy80211p.sensitivity -89dBm
param *.**.nic.phy80211p.thermalNoise -110dBm
param *.**.nic.phy80211p.usePropagationDelay true
param *.**.nic.phy80211p.useThermalNoise true
param *.annotations.draw false
param *.connectionManager.alpha 2.0
param *.connectionManager.carrierFrequency "5.890e9 Hz"
param *.connectionManager.pMax 20mW
param *.connectionManager.sat -89dBm
param *.connectionManager.sendDirect true
param *.manager.autoShutdown true
param *.manager.host "\"localhost\""
param *.manager.launchConfig "xmldoc(\"erlangen.launchd.xml\")"
param *.manager.margin 25
param *.manager.moduleDisplayString "\"\""
param *.manager.moduleName "\"node\""
param *.manager.moduleType "\"org.car2x.veins.nodes.Car\""
param *.manager.port 9999
param *.manager.updateInterval 1s
param *.node[*].appl.beaconInterval 1s
param *.node[*].appl.beaconPriority 3
param *.node[*].appl.dataOnSch false
param *.node[*].appl.dataPriority 2
param *.node[*].appl.debug false
param *.node[*].appl.headerLength "256 bit"
param *.node[*].appl.maxOffset 0.005s
param *.node[*].appl.sendBeacons false
param *.node[*].appl.sendData true
param *.node[*].applType "\"TraCIDemo11p\""
param *.node[*].mobilityType "\"TraCIMobility\""
param *.node[*].mobilityType.debug true
param *.node[*].veinsmobility.accidentCount 5
param *.node[*].veinsmobility.accidentDuration 43s
param *.node[*].veinsmobility.accidentStart 85s
param *.node[*].veinsmobility.x 0
param *.node[*].veinsmobility.y 0
param *.node[*].veinsmobility.z 1.895
param *.node[*].veinsmobilityType "\"org.car2x.veins.modules.mobility.traci.TraCIMobility\""
param *.node[*].veinsmobilityType.debug true
param *.obstacles.debug false
param *.obstacles.obstacles "xmldoc(\"config.xml\", \"//AnalogueModel[@type='SimpleObstacleShadowing']/obstacles\")"
param *.playgroundSizeX 2500m
param *.playgroundSizeY 2500m
param *.playgroundSizeZ 50m
param *.rsu[*].appl.beaconInterval 1s
param *.rsu[*].appl.beaconPriority 3
param *.rsu[*].appl.dataOnSch false
param *.rsu[*].appl.dataPriority 2
param *.rsu[*].appl.debug false
param *.rsu[*].appl.headerLength "256 bit"
param *.rsu[*].appl.maxOffset 0.005s
param *.rsu[*].appl.sendBeacons false
param *.rsu[*].appl.sendData true
param *.rsu[*].applType "\"TraCIDemoRSU11p\""
param *.rsu[0].mobility.x 2000
param *.rsu[0].mobility.y 2000
param *.rsu[0].mobility.z 3
param *.world.use2D false
param *.world.useTorus false

scalar RSUExampleScenario.node[0].nic.phy80211p 	busyTime 	2.9179331306991e-07
scalar RSUExampleScenario.node[0].nic.mac1609_4 	ReceivedUnicastPackets 	0
scalar RSUExampleScenario.node[0].nic.mac1609_4 	ReceivedBroadcasts 	0
scalar RSUExampleScenario.node[0].nic.mac1609_4 	SentPackets 	1
scalar RSUExampleScenario.node[0].nic.mac1609_4 	SNIRLostPackets 	1
scalar RSUExampleScenario.node[0].nic.mac1609_4 	RXTXLostPackets 	0
scalar RSUExampleScenario.node[0].nic.mac1609_4 	TotalLostPackets 	1
scalar RSUExampleScenario.node[0].nic.mac1609_4 	DroppedPacketsInMac 	0
scalar RSUExampleScenario.node[0].nic.mac1609_4 	TooLittleTime 	0
scalar RSUExampleScenario.node[0].nic.mac1609_4 	TimesIntoBackoff 	1
scalar RSUExampleScenario.node[0].nic.mac1609_4 	SlotsBackoff 	1
scalar RSUExampleScenario.node[0].nic.mac1609_4 	NumInternalContention 	0
scalar RSUExampleScenario.node[0].nic.mac1609_4 	totalBusyTime 	0.000193
scalar RSUExampleScenario.node[0].veinsmobility 	startTime 	1
scalar RSUExampleScenario.node[0].veinsmobility 	totalTime 	328
scalar RSUExampleScenario.node[0].veinsmobility 	stopTime 	330
scalar RSUExampleScenario.node[0].veinsmobility 	minSpeed 	0
scalar RSUExampleScenario.node[0].veinsmobility 	maxSpeed 	27.768710480146
scalar RSUExampleScenario.node[0].veinsmobility 	totalDistance 	3392.992063171
scalar RSUExampleScenario.node[0].veinsmobility 	totalCO2Emission 	946.24295517861
scalar RSUExampleScenario.node[1].nic.phy80211p 	busyTime 	4.2985074626866e-06
scalar RSUExampleScenario.node[1].nic.mac1609_4 	ReceivedUnicastPackets 	0
scalar RSUExampleScenario.node[1].nic.mac1609_4 	ReceivedBroadcasts 	14
scalar RSUExampleScenario.node[1].nic.mac1609_4 	SentPackets 	1
scalar RSUExampleScenario.node[1].nic.mac1609_4 	SNIRLostPackets 	4
scalar RSUExampleScenario.node[1].nic.mac1609_4 	RXTXLostPackets 	0
scalar RSUExampleScenario.node[1].nic.mac1609_4 	TotalLostPackets 	4
scalar RSUExampleScenario.node[1].nic.mac1609_4 	DroppedPacketsInMac 	0
scalar RSUExampleScenario.node[1].nic.mac1609_4 	TooLittleTime 	0
scalar RSUExampleScenario.node[1].nic.mac1609_4 	TimesIntoBackoff 	1
scalar RSUExampleScenario.node[1].nic.mac1609_4 	SlotsBackoff 	3
scalar RSUExampleScenario.node[1].nic.mac1609_4 	NumInternalContention 	0
scalar RSUExampleScenario.node[1].nic.mac1609_4 	totalBusyTime 	0.001633
scalar RSUExampleScenario.node[1].veinsmobility 	startTime 	3
scalar RSUExampleScenario.node[1].veinsmobility 	totalTime 	401
scalar RSUExampleScenario.node[1].veinsmobility 	stopTime 	405
scalar RSUExampleScenario.node[1].veinsmobility 	minSpeed 	0
scalar RSUExampleScenario.node[1].veinsmobility 	maxSpeed 	27.770336877265
scalar RSUExampleScenario.node[1].veinsmobility 	totalDistance 	3394.4821460559
scalar RSUExampleScenario.node[1].veinsmobility 	totalCO2Emission 	896.49509270821
scalar RSUExampleScenario.node[5].nic.phy80211p 	busyTime 	4.3846153846154e-06
scalar RSUExampleScenario.node[5].nic.mac1609_4 	ReceivedUnicastPackets 	0
scalar RSUExampleScenario.node[5].nic.mac1609_4 	ReceivedBroadcasts 	13
scalar RSUExampleScenario.node[5].nic.mac1609_4 	SentPackets 	1
scalar RSUExampleScenario.node[5].nic.mac1609_4 	SNIRLostPackets 	6
scalar RSUExampleScenario.node[5].nic.mac1609_4 	RXTXLostPackets 	0
scalar RSUExampleScenario.node[5].nic.mac1609_4 	TotalLostPackets 	6
scalar RSUExampleScenario.node[5].nic.mac1609_4 	DroppedPacketsInMac 	0
scalar RSUExampleScenario.node[5].nic.mac1609_4 	TooLittleTime 	0
scalar RSUExampleScenario.node[5].nic.mac1609_4 	TimesIntoBackoff 	1
scalar RSUExampleScenario.node[5].nic.mac1609_4 	SlotsBackoff 	4
scalar RSUExampleScenario.node[5].nic.mac1609_4 	NumInternalContention 	0
scalar RSUExampleScenario.node[5].nic.mac1609_4 	totalBusyTime 	0.001633
scalar RSUExampleScenario.node[5].veinsmobility 	startTime 	10
scalar RSUExampleScenario.node[5].veinsmobility 	totalTime 	415
scalar RSUExampleScenario.node[5].veinsmobility 	stopTime 	426
scalar RSUExampleScenario.node[5].veinsmobility 	minSpeed 	0
scalar RSUExampleScenario.node[5].veinsmobility 	maxSpeed 	27.766764326012
scalar RSUExampleScenario.node[5].veinsmobility 	totalDistance 	3398.9065241829
scalar RSUExampleScenario.node[5].veinsmobility 	totalCO2Emission 	1012.6648769832
scalar RSUExampleScenario.node[10].nic.phy80211p 	busyTime 	4.3636363636364e-06
scalar RSUExampleScenario.node[10].nic.mac1609_4 	ReceivedUnicastPackets 	0
scalar RSUExampleScenario.node[10].nic.mac1609_4 	ReceivedBroadcasts 	14
scalar RSUExampleScenario.node[10].nic.mac1609_4 	SentPackets 	1
scalar RSUExampleScenario.node[10].nic.mac1609_4 	SNIRLostPackets 	6
scalar RSUExampleScenario.node[10].nic.mac1609_4 	RXTXLostPackets 	1
scalar RSUExampleScenario.node[10].nic.mac1609_4 	TotalLostPackets 	7
scalar RSUExampleScenario.node[10].nic.mac1609_4 	DroppedPacketsInMac 	0
scalar RSUExampleScenario.node[10].nic.mac1609_4 	TooLittleTime 	0
scalar RSUExampleScenario.node[10].nic.mac1609_4 	TimesIntoBackoff 	2
scalar RSUExampleScenario.node[10].nic.mac1609_4 	SlotsBackoff 	5
scalar RSUExampleScenario.node[10].nic.mac1609_4 	NumInternalContention 	0
scalar RSUExampleScenario.node[10].nic.mac1609_4 	totalBusyTime 	0.001729057883
scalar RSUExampleScenario.node[10].veinsmobility 	startTime 	19
scalar RSUExampleScenario.node[10].veinsmobility 	totalTime 	439
scalar RSUExampleScenario.node[10].veinsmobility 	stopTime 	459
scalar RSUExampleScenario.node[10].veinsmobility 	minSpeed 	0
scalar RSUExampleScenario.node[10].veinsmobility 	maxSpeed 	27.769938632669
scalar RSUExampleScenario.node[10].veinsmobility 	totalDistance 	3395.2643300536
scalar RSUExampleScenario.node[10].veinsmobility 	totalCO2Emission 	1026.8873568041
scalar RSUExampleScenario.node[2].nic.phy80211p 	busyTime 	3.5482546201232e-06
scalar RSUExampleScenario.node[2].nic.mac1609_4 	ReceivedUnicastPackets 	0
scalar RSUExampleScenario.node[2].nic.mac1609_4 	ReceivedBroadcasts 	14
scalar RSUExampleScenario.node[2].nic.mac1609_4 	SentPackets 	1
scalar RSUExampleScenario.node[2].nic.mac1609_4 	SNIRLostPackets 	4
scalar RSUExampleScenario.node[2].nic.mac1609_4 	RXTXLostPackets 	0
scalar RSUExampleScenario.node[2].nic.mac1609_4 	TotalLostPackets 	4
scalar RSUExampleScenario.node[2].nic.mac1609_4 	DroppedPacketsInMac 	0
scalar RSUExampleScenario.node[2].nic.mac1609_4 	TooLittleTime 	0
scalar RSUExampleScenario.node[2].nic.mac1609_4 	TimesIntoBackoff 	1
scalar RSUExampleScenario.node[2].nic.mac1609_4 	SlotsBackoff 	1
scalar RSUExampleScenario.node[2].nic.mac1609_4 	NumInternalContention 	0
scalar RSUExampleScenario.node[2].nic.mac1609_4 	totalBusyTime 	0.001633
scalar RSUExampleScenario.node[2].veinsmobility 	startTime 	5
scalar RSUExampleScenario.node[2].veinsmobility 	totalTime 	486
scalar RSUExampleScenario.node[2].veinsmobility 	stopTime 	492
scalar RSUExampleScenario.node[2].veinsmobility 	minSpeed 	0
scalar RSUExampleScenario.node[2].veinsmobility 	maxSpeed 	27.774142215429
scalar RSUExampleScenario.node[2].veinsmobility 	totalDistance 	3392.6930199891
scalar RSUExampleScenario.node[2].veinsmobility 	totalCO2Emission 	1141.2231831562
scalar RSUExampleScenario.node[3].nic.phy80211p 	busyTime 	3.5050709939148e-06
scalar RSUExampleScenario.node[3].nic.mac1609_4 	ReceivedUnicastPackets 	0
scalar RSUExampleScenario.node[3].nic.mac1609_4 	ReceivedBroadcasts 	14
scalar RSUExampleScenario.node[3].nic.mac1609_4 	SentPackets 	1
scalar RSUExampleScenario.node[3].nic.mac1609_4 	SNIRLostPackets 	4
scalar RSUExampleScenario.node[3].nic.mac1609_4 	RXTXLostPackets 	0
scalar RSUExampleScenario.node[3].nic.mac1609_4 	TotalLostPackets 	4
scalar RSUExampleScenario.node[3].nic.mac1609_4 	DroppedPacketsInMac 	0
scalar RSUExampleScenario.node[3].nic.mac1609_4 	TooLittleTime 	0
scalar RSUExampleScenario.node[3].nic.mac1609_4 	TimesIntoBackoff 	1
scalar RSUExampleScenario.node[3].nic.mac1609_4 	SlotsBackoff 	2
scalar RSUExampleScenario.node[3].nic.mac1609_4 	NumInternalContention 	0
scalar RSUExampleScenario.node[3].nic.mac1609_4 	totalBusyTime 	0.001633
scalar RSUExampleScenario.node[3].veinsmobility 	startTime 	7
scalar RSUExampleScenario.node[3].veinsmobility 	totalTime 	492
scalar RSUExampleScenario.node[3].veinsmobility 	stopTime 	500
scalar RSUExampleScenario.node[3].veinsmobility 	minSpeed 	0
scalar RSUExampleScenario.node[3].veinsmobility 	maxSpeed 	27.779409390688
scalar RSUExampleScenario.node[3].veinsmobility 	totalDistance 	3403.1349067397
scalar RSUExampleScenario.node[3].veinsmobility 	totalCO2Emission 	1144.8830839267
scalar RSUExampleScenario.node[4].nic.phy80211p 	busyTime 	3.3103448275862e-06
scalar RSUExampleScenario.node[4].nic.mac1609_4 	ReceivedUnicastPackets 	0
scalar RSUExampleScenario.node[4].nic.mac1609_4 	ReceivedBroadcasts 	14
scalar RSUExampleScenario.node[4].nic.mac1609_4 	SentPackets 	1
scalar RSUExampleScenario.node[4].nic.mac1609_4 	SNIRLostPackets 	4
scalar RSUExampleScenario.node[4].nic.mac1609_4 	RXTXLostPackets 	0
scalar RSUExampleScenario.node[4].nic.mac1609_4 	TotalLostPackets 	4
scalar RSUExampleScenario.node[4].nic.mac1609_4 	DroppedPacketsInMac 	0
scalar RSUExampleScenario.node[4].nic.mac1609_4 	TooLittleTime 	0
scalar RSUExampleScenario.node[4].nic.mac1609_4 	TimesIntoBackoff 	2
scalar RSUExampleScenario.node[4].nic.mac1609_4 	SlotsBackoff 	2
scalar RSUExampleScenario.node[4].nic.mac1609_4 	NumInternalContention 	0
scalar RSUExampleScenario.node[4].nic.mac1609_4 	totalBusyTime 	0.001633
scalar RSUExampleScenario.node[4].veinsmobility 	startTime 	8
scalar RSUExampleScenario.node[4].veinsmobility 	totalTime 	521
scalar RSUExampleScenario.node[4].veinsmobility 	stopTime 	530
scalar RSUExampleScenario.node[4].veinsmobility 	minSpeed 	0
scalar RSUExampleScenario.node[4].veinsmobility 	maxSpeed 	27.778338460503
scalar RSUExampleScenario.node[4].veinsmobility 	totalDistance 	3407.087286015
scalar RSUExampleScenario.node[4].veinsmobility 	totalCO2Emission 	1120.1846222204
scalar RSUExampleScenario.node[17].nic.phy80211p 	busyTime 	5.1633466135458e-06
scalar RSUExampleScenario.node[17].nic.mac1609_4 	ReceivedUnicastPackets 	0
scalar RSUExampleScenario.node[17].nic.mac1609_4 	ReceivedBroadcasts 	17
scalar RSUExampleScenario.node[17].nic.mac1609_4 	SentPackets 	1
scalar RSUExampleScenario.node[17].nic.mac1609_4 	SNIRLostPackets 	10
scalar RSUExampleScenario.node[17].nic.mac1609_4 	RXTXLostPackets 	2
scalar RSUExampleScenario.node[17].nic.mac1609_4 	TotalLostPackets 	12
scalar RSUExampleScenario.node[17].nic.mac1609_4 	DroppedPacketsInMac 	0
scalar RSUExampleScenario.node[17].nic.mac1609_4 	TooLittleTime 	0
scalar RSUExampleScenario.node[17].nic.mac1609_4 	TimesIntoBackoff 	1
scalar RSUExampleScenario.node[17].nic.mac1609_4 	SlotsBackoff 	2
scalar RSUExampleScenario.node[17].nic.mac1609_4 	NumInternalContention 	0
scalar RSUExampleScenario.node[17].nic.mac1609_4 	totalBusyTime 	0.002209
scalar RSUExampleScenario.node[17].veinsmobility 	startTime 	31
scalar RSUExampleScenario.node[17].veinsmobility 	totalTime 	501
scalar RSUExampleScenario.node[17].veinsmobility 	stopTime 	533
scalar RSUExampleScenario.node[17].veinsmobility 	minSpeed 	0
scalar RSUExampleScenario.node[17].veinsmobility 	maxSpeed 	27.711164741851
scalar RSUExampleScenario.node[17].veinsmobility 	totalDistance 	3400.6431645154
scalar RSUExampleScenario.node[17].veinsmobility 	totalCO2Emission 	1236.9653485465
scalar RSUExampleScenario.node[13].nic.phy80211p 	busyTime 	4.5176470588235e-06
scalar RSUExampleScenario.node[13].nic.mac1609_4 	ReceivedUnicastPackets 	0
scalar RSUExampleScenario.node[13].nic.mac1609_4 	ReceivedBroadcasts 	15
scalar RSUExampleScenario.node[13].nic.mac1609_4 	SentPackets 	1
scalar RSUExampleScenario.node[13].nic.mac1609_4 	SNIRLostPackets 	9
scalar RSUExampleScenario.node[13].nic.mac1609_4 	RXTXLostPackets 	0
scalar RSUExampleScenario.node[13].nic.mac1609_4 	TotalLostPackets 	9
scalar RSUExampleScenario.node[13].nic.mac1609_4 	DroppedPacketsInMac 	0
scalar RSUExampleScenario.node[13].nic.mac1609_4 	TooLittleTime 	0
scalar RSUExampleScenario.node[13].nic.mac1609_4 	TimesIntoBackoff 	1
scalar RSUExampleScenario.node[13].nic.mac1609_4 	SlotsBackoff 	6
scalar RSUExampleScenario.node[13].nic.mac1609_4 	NumInternalContention 	0
scalar RSUExampleScenario.node[13].nic.mac1609_4 	totalBusyTime 	0.001921023767
scalar RSUExampleScenario.node[13].veinsmobility 	startTime 	25
scalar RSUExampleScenario.node[13].veinsmobility 	totalTime 	509
scalar RSUExampleScenario.node[13].veinsmobility 	stopTime 	535
scalar RSUExampleScenario.node[13].veinsmobility 	minSpeed 	0
scalar RSUExampleScenario.node[13].veinsmobility 	maxSpeed 	27.775104928277
scalar RSUExampleScenario.node[13].veinsmobility 	totalDistance 	3395.9367254841
scalar RSUExampleScenario.node[13].veinsmobility 	totalCO2Emission 	1111.2289345489
scalar RSUExampleScenario.node[9].nic.phy80211p 	busyTime 	3.5076923076923e-06
scalar RSUExampleScenario.node[9].nic.mac1609_4 	ReceivedUnicastPackets 	0
scalar RSUExampleScenario.node[9].nic.mac1609_4 	ReceivedBroadcasts 	15
scalar RSUExampleScenario.node[9].nic.mac1609_4 	SentPackets 	1
scalar RSUExampleScenario.node[9].nic.mac1609_4 	SNIRLostPackets 	4
scalar RSUExampleScenario.node[9].nic.mac1609_4 	RXTXLostPackets 	1
scalar RSUExampleScenario.node[9].nic.mac1609_4 	TotalLostPackets 	5
scalar RSUExampleScenario.node[9].nic.mac1609_4 	DroppedPacketsInMac 	0
scalar RSUExampleScenario.node[9].nic.mac1609_4 	TooLittleTime 	0
scalar RSUExampleScenario.node[9].nic.mac1609_4 	TimesIntoBackoff 	2
scalar RSUExampleScenario.node[9].nic.mac1609_4 	SlotsBackoff 	4
scalar RSUExampleScenario.node[9].nic.mac1609_4 	NumInternalContention 	0
scalar RSUExampleScenario.node[9].nic.mac1609_4 	totalBusyTime 	0.001729001807
scalar RSUExampleScenario.node[9].veinsmobility 	startTime 	17
scalar RSUExampleScenario.node[9].veinsmobility 	totalTime 	519
scalar RSUExampleScenario.node[9].veinsmobility 	stopTime 	537
scalar RSUExampleScenario.node[9].veinsmobility 	minSpeed 	0
scalar RSUExampleScenario.node[9].veinsmobility 	maxSpeed 	27.777621131353
scalar RSUExampleScenario.node[9].veinsmobility 	totalDistance 	3399.9372947075
scalar RSUExampleScenario.node[9].veinsmobility 	totalCO2Emission 	1243.6872893438
scalar RSUExampleScenario.node[11].nic.phy80211p 	busyTime 	3.8769230769231e-06
scalar RSUExampleScenario.node[11].nic.mac1609_4 	ReceivedUnicastPackets 	0
scalar RSUExampleScenario.node[11].nic.mac1609_4 	ReceivedBroadcasts 	13
scalar RSUExampleScenario.node[11].nic.mac1609_4 	SentPackets 	1
scalar RSUExampleScenario.node[11].nic.mac1609_4 	SNIRLostPackets 	8
scalar RSUExampleScenario.node[11].nic.mac1609_4 	RXTXLostPackets 	0
scalar RSUExampleScenario.node[11].nic.mac1609_4 	TotalLostPackets 	8
scalar RSUExampleScenario.node[11].nic.mac1609_4 	DroppedPacketsInMac 	0
scalar RSUExampleScenario.node[11].nic.mac1609_4 	TooLittleTime 	0
scalar RSUExampleScenario.node[11].nic.mac1609_4 	TimesIntoBackoff 	2
scalar RSUExampleScenario.node[11].nic.mac1609_4 	SlotsBackoff 	5
scalar RSUExampleScenario.node[11].nic.mac1609_4 	NumInternalContention 	0
scalar RSUExampleScenario.node[11].nic.mac1609_4 	totalBusyTime 	0.001729057842
scalar RSUExampleScenario.node[11].veinsmobility 	startTime 	20
scalar RSUExampleScenario.node[11].veinsmobility 	totalTime 	519
scalar RSUExampleScenario.node[11].veinsmobility 	stopTime 	540
scalar RSUExampleScenario.node[11].veinsmobility 	minSpeed 	0
scalar RSUExampleScenario.node[11].veinsmobility 	maxSpeed 	27.777994344598
scalar RSUExampleScenario.node[11].veinsmobility 	totalDistance 	3400.1780342187
scalar RSUExampleScenario.node[11].veinsmobility 	totalCO2Emission 	1178.2965333038
scalar RSUExampleScenario.node[15].nic.phy80211p 	busyTime 	5.0428015564202e-06
scalar RSUExampleScenario.node[15].nic.mac1609_4 	ReceivedUnicastPackets 	0
scalar RSUExampleScenario.node[15].nic.mac1609_4 	ReceivedBroadcasts 	17
scalar RSUExampleScenario.node[15].nic.mac1609_4 	SentPackets 	1
scalar RSUExampleScenario.node[15].nic.mac1609_4 	SNIRLostPackets 	10
scalar RSUExampleScenario.node[15].nic.mac1609_4 	RXTXLostPackets 	0
scalar RSUExampleScenario.node[15].nic.mac1609_4 	TotalLostPackets 	10
scalar RSUExampleScenario.node[15].nic.mac1609_4 	DroppedPacketsInMac 	0
scalar RSUExampleScenario.node[15].nic.mac1609_4 	TooLittleTime 	0
scalar RSUExampleScenario.node[15].nic.mac1609_4 	TimesIntoBackoff 	1
scalar RSUExampleScenario.node[15].nic.mac1609_4 	SlotsBackoff 	5
scalar RSUExampleScenario.node[15].nic.mac1609_4 	NumInternalContention 	0
scalar RSUExampleScenario.node[15].nic.mac1609_4 	totalBusyTime 	0.002113
scalar RSUExampleScenario.node[15].veinsmobility 	startTime 	28
scalar RSUExampleScenario.node[15].veinsmobility 	totalTime 	513
scalar RSUExampleScenario.node[15].veinsmobility 	stopTime 	542
scalar RSUExampleScenario.node[15].veinsmobility 	minSpeed 	0
scalar RSUExampleScenario.node[15].veinsmobility 	maxSpeed 	27.731161171496
scalar RSUExampleScenario.node[15].veinsmobility 	totalDistance 	3403.227879437
scalar RSUExampleScenario.node[15].veinsmobility 	totalCO2Emission 	1139.5672922448
scalar RSUExampleScenario.node[7].nic.phy80211p 	busyTime 	3.5555555555556e-06
scalar RSUExampleScenario.node[7].nic.mac1609_4 	ReceivedUnicastPackets 	0
scalar RSUExampleScenario.node[7].nic.mac1609_4 	ReceivedBroadcasts 	14
scalar RSUExampleScenario.node[7].nic.mac1609_4 	SentPackets 	1
scalar RSUExampleScenario.node[7].nic.mac1609_4 	SNIRLostPackets 	6
scalar RSUExampleScenario.node[7].nic.mac1609_4 	RXTXLostPackets 	0
scalar RSUExampleScenario.node[7].nic.mac1609_4 	TotalLostPackets 	6
scalar RSUExampleScenario.node[7].nic.mac1609_4 	DroppedPacketsInMac 	0
scalar RSUExampleScenario.node[7].nic.mac1609_4 	TooLittleTime 	0
scalar RSUExampleScenario.node[7].nic.mac1609_4 	TimesIntoBackoff 	2
scalar RSUExampleScenario.node[7].nic.mac1609_4 	SlotsBackoff 	7
scalar RSUExampleScenario.node[7].nic.mac1609_4 	NumInternalContention 	0
scalar RSUExampleScenario.node[7].nic.mac1609_4 	totalBusyTime 	0.001729001807
scalar RSUExampleScenario.node[7].veinsmobility 	startTime 	14
scalar RSUExampleScenario.node[7].veinsmobility 	totalTime 	539
scalar RSUExampleScenario.node[7].veinsmobility 	stopTime 	554
scalar RSUExampleScenario.node[7].veinsmobility 	minSpeed 	0
scalar RSUExampleScenario.node[7].veinsmobility 	maxSpeed 	27.768708854113
scalar RSUExampleScenario.node[7].veinsmobility 	totalDistance 	3396.053927723
scalar RSUExampleScenario.node[7].veinsmobility 	totalCO2Emission 	1170.1551556601
scalar RSUExampleScenario.node[52].nic.phy80211p 	busyTime 	4.056338028169e-06
scalar RSUExampleScenario.node[52].nic.mac1609_4 	ReceivedUnicastPackets 	0
scalar RSUExampleScenario.node[52].nic.mac1609_4 	ReceivedBroadcasts 	18
scalar RSUExampleScenario.node[52].nic.mac1609_4 	SentPackets 	1
scalar RSUExampleScenario.node[52].nic.mac1609_4 	SNIRLostPackets 	3
scalar RSUExampleScenario.node[52].nic.mac1609_4 	RXTXLostPackets 	0
scalar RSUExampleScenario.node[52].nic.mac1609_4 	TotalLostPackets 	3
scalar RSUExampleScenario.node[52].nic.mac1609_4 	DroppedPacketsInMac 	0
scalar RSUExampleScenario.node[52].nic.mac1609_4 	TooLittleTime 	0
scalar RSUExampleScenario.node[52].nic.mac1609_4 	TimesIntoBackoff 	1
scalar RSUExampleScenario.node[52].nic.mac1609_4 	SlotsBackoff 	5
scalar RSUExampleScenario.node[52].nic.mac1609_4 	NumInternalContention 	0
scalar RSUExampleScenario.node[52].nic.mac1609_4 	totalBusyTime 	0.001921
scalar RSUExampleScenario.node[52].veinsmobility 	startTime 	102
scalar RSUExampleScenario.node[52].veinsmobility 	totalTime 	496
scalar RSUExampleScenario.node[52].veinsmobility 	stopTime 	599
scalar RSUExampleScenario.node[52].veinsmobility 	minSpeed 	0
scalar RSUExampleScenario.node[52].veinsmobility 	maxSpeed 	27.749036527751
scalar RSUExampleScenario.node[52].veinsmobility 	totalDistance 	3398.7012543978
scalar RSUExampleScenario.node[52].veinsmobility 	totalCO2Emission 	1308.9656929518
scalar RSUExampleScenario.node[8].nic.phy80211p 	busyTime 	3.2820512820513e-06
scalar RSUExampleScenario.node[8].nic.mac1609_4 	ReceivedUnicastPackets 	0
scalar RSUExampleScenario.node[8].nic.mac1609_4 	ReceivedBroadcasts 	14
scalar RSUExampleScenario.node[8].nic.mac1609_4 	SentPackets 	1
scalar RSUExampleScenario.node[8].nic.mac1609_4 	SNIRLostPackets 	6
scalar RSUExampleScenario.node[8].nic.mac1609_4 	RXTXLostPackets 	0
scalar RSUExampleScenario.node[8].nic.mac1609_4 	TotalLostPackets 	6
scalar RSUExampleScenario.node[8].nic.mac1609_4 	DroppedPacketsInMac 	0
scalar RSUExampleScenario.node[8].nic.mac1609_4 	TooLittleTime 	0
scalar RSUExampleScenario.node[8].nic.mac1609_4 	TimesIntoBackoff 	2
scalar RSUExampleScenario.node[8].nic.mac1609_4 	SlotsBackoff 	2
scalar RSUExampleScenario.node[8].nic.mac1609_4 	NumInternalContention 	0
scalar RSUExampleScenario.node[8].nic.mac1609_4 	totalBusyTime 	0.001729001807
scalar RSUExampleScenario.node[8].veinsmobility 	startTime 	16
scalar RSUExampleScenario.node[8].veinsmobility 	totalTime 	584
scalar RSUExampleScenario.node[8].veinsmobility 	stopTime 	601
scalar RSUExampleScenario.node[8].veinsmobility 	minSpeed 	0
scalar RSUExampleScenario.node[8].veinsmobility 	maxSpeed 	27.738042067038
scalar RSUExampleScenario.node[8].veinsmobility 	totalDistance 	3396.4897572752
scalar RSUExampleScenario.node[8].veinsmobility 	totalCO2Emission 	1327.734393346
scalar RSUExampleScenario.node[16].nic.phy80211p 	busyTime 	4.5235602094241e-06
scalar RSUExampleScenario.node[16].nic.mac1609_4 	ReceivedUnicastPackets 	0
scalar RSUExampleScenario.node[16].nic.mac1609_4 	ReceivedBroadcasts 	18
scalar RSUExampleScenario.node[16].nic.mac1609_4 	SentPackets 	1
scalar RSUExampleScenario.node[16].nic.mac1609_4 	SNIRLostPackets 	9
scalar RSUExampleScenario.node[16].nic.mac1609_4 	RXTXLostPackets 	2
scalar RSUExampleScenario.node[16].nic.mac1609_4 	TotalLostPackets 	11
scalar RSUExampleScenario.node[16].nic.mac1609_4 	DroppedPacketsInMac 	0
scalar RSUExampleScenario.node[16].nic.mac1609_4 	TooLittleTime 	0
scalar RSUExampleScenario.node[16].nic.mac1609_4 	TimesIntoBackoff 	1
scalar RSUExampleScenario.node[16].nic.mac1609_4 	SlotsBackoff 	0
scalar RSUExampleScenario.node[16].nic.mac1609_4 	NumInternalContention 	0
scalar RSUExampleScenario.node[16].nic.mac1609_4 	totalBusyTime 	0.002209
scalar RSUExampleScenario.node[16].veinsmobility 	startTime 	30
scalar RSUExampleScenario.node[16].veinsmobility 	totalTime 	572
scalar RSUExampleScenario.node[16].veinsmobility 	stopTime 	603
scalar RSUExampleScenario.node[16].veinsmobility 	minSpeed 	0
scalar RSUExampleScenario.node[16].veinsmobility 	maxSpeed 	27.751628767345
scalar RSUExampleScenario.node[16].veinsmobility 	totalDistance 	3398.2470668255
scalar RSUExampleScenario.node[16].veinsmobility 	totalCO2Emission 	1303.1163770732
scalar RSUExampleScenario.node[12].nic.phy80211p 	busyTime 	3.5857385398981e-06
scalar RSUExampleScenario.node[12].nic.mac1609_4 	ReceivedUnicastPackets 	0
scalar RSUExampleScenario.node[12].nic.mac1609_4 	ReceivedBroadcasts 	15
scalar RSUExampleScenario.node[12].nic.mac1609_4 	SentPackets 	1
scalar RSUExampleScenario.node[12].nic.mac1609_4 	SNIRLostPackets 	7
scalar RSUExampleScenario.node[12].nic.mac1609_4 	RXTXLostPackets 	1
scalar RSUExampleScenario.node[12].nic.mac1609_4 	TotalLostPackets 	8
scalar RSUExampleScenario.node[12].nic.mac1609_4 	DroppedPacketsInMac 	0
scalar RSUExampleScenario.node[12].nic.mac1609_4 	TooLittleTime 	0
scalar RSUExampleScenario.node[12].nic.mac1609_4 	TimesIntoBackoff 	1
scalar RSUExampleScenario.node[12].nic.mac1609_4 	SlotsBackoff 	4
scalar RSUExampleScenario.node[12].nic.mac1609_4 	NumInternalContention 	0
scalar RSUExampleScenario.node[12].nic.mac1609_4 	totalBusyTime 	0.001825
scalar RSUExampleScenario.node[12].veinsmobility 	startTime 	23
scalar RSUExampleScenario.node[12].veinsmobility 	totalTime 	588
scalar RSUExampleScenario.node[12].veinsmobility 	stopTime 	612
scalar RSUExampleScenario.node[12].veinsmobility 	minSpeed 	0
scalar RSUExampleScenario.node[12].veinsmobility 	maxSpeed 	27.776702339047
scalar RSUExampleScenario.node[12].veinsmobility 	totalDistance 	3389.0698395229
scalar RSUExampleScenario.node[12].veinsmobility 	totalCO2Emission 	1097.5375167492
scalar RSUExampleScenario.node[55].nic.phy80211p 	busyTime 	4.0228571428571e-06
scalar RSUExampleScenario.node[55].nic.mac1609_4 	ReceivedUnicastPackets 	0
scalar RSUExampleScenario.node[55].nic.mac1609_4 	ReceivedBroadcasts 	18
scalar RSUExampleScenario.node[55].nic.mac1609_4 	SentPackets 	1
scalar RSUExampleScenario.node[55].nic.mac1609_4 	SNIRLostPackets 	4
scalar RSUExampleScenario.node[55].nic.mac1609_4 	RXTXLostPackets 	0
scalar RSUExampleScenario.node[55].nic.mac1609_4 	TotalLostPackets 	4
scalar RSUExampleScenario.node[55].nic.mac1609_4 	DroppedPacketsInMac 	0
scalar RSUExampleScenario.node[55].nic.mac1609_4 	TooLittleTime 	0
scalar RSUExampleScenario.node[55].nic.mac1609_4 	TimesIntoBackoff 	1
scalar RSUExampleScenario.node[55].nic.mac1609_4 	SlotsBackoff 	0
scalar RSUExampleScenario.node[55].nic.mac1609_4 	NumInternalContention 	0
scalar RSUExampleScenario.node[55].nic.mac1609_4 	totalBusyTime 	0.001921
scalar RSUExampleScenario.node[55].veinsmobility 	startTime 	108
scalar RSUExampleScenario.node[55].veinsmobility 	totalTime 	524
scalar RSUExampleScenario.node[55].veinsmobility 	stopTime 	633
scalar RSUExampleScenario.node[55].veinsmobility 	minSpeed 	0
scalar RSUExampleScenario.node[55].veinsmobility 	maxSpeed 	27.760450323569
scalar RSUExampleScenario.node[55].veinsmobility 	totalDistance 	3409.1012571747
scalar RSUExampleScenario.node[55].veinsmobility 	totalCO2Emission 	1237.0078994211
scalar RSUExampleScenario.node[19].nic.phy80211p 	busyTime 	4.7920133111481e-06
scalar RSUExampleScenario.node[19].nic.mac1609_4 	ReceivedUnicastPackets 	0
scalar RSUExampleScenario.node[19].nic.mac1609_4 	ReceivedBroadcasts 	16
scalar RSUExampleScenario.node[19].nic.mac1609_4 	SentPackets 	1
scalar RSUExampleScenario.node[19].nic.mac1609_4 	SNIRLostPackets 	14
scalar RSUExampleScenario.node[19].nic.mac1609_4 	RXTXLostPackets 	1
scalar RSUExampleScenario.node[19].nic.mac1609_4 	TotalLostPackets 	15
scalar RSUExampleScenario.node[19].nic.mac1609_4 	DroppedPacketsInMac 	0
scalar RSUExampleScenario.node[19].nic.mac1609_4 	TooLittleTime 	0
scalar RSUExampleScenario.node[19].nic.mac1609_4 	TimesIntoBackoff 	1
scalar RSUExampleScenario.node[19].nic.mac1609_4 	SlotsBackoff 	1
scalar RSUExampleScenario.node[19].nic.mac1609_4 	NumInternalContention 	0
scalar RSUExampleScenario.node[19].nic.mac1609_4 	totalBusyTime 	0.002209
scalar RSUExampleScenario.node[19].veinsmobility 	startTime 	34
scalar RSUExampleScenario.node[19].veinsmobility 	totalTime 	600
scalar RSUExampleScenario.node[19].veinsmobility 	stopTime 	635
scalar RSUExampleScenario.node[19].veinsmobility 	minSpeed 	0
scalar RSUExampleScenario.node[19].veinsmobility 	maxSpeed 	27.775643792218
scalar RSUExampleScenario.node[19].veinsmobility 	totalDistance 	3400.8394572732
scalar RSUExampleScenario.node[19].veinsmobility 	totalCO2Emission 	1392.170923788
scalar RSUExampleScenario.node[6].nic.phy80211p 	busyTime 	3.0331753554502e-06
scalar RSUExampleScenario.node[6].nic.mac1609_4 	ReceivedUnicastPackets 	0
scalar RSUExampleScenario.node[6].nic.mac1609_4 	ReceivedBroadcasts 	14
scalar RSUExampleScenario.node[6].nic.mac1609_4 	SentPackets 	1
scalar RSUExampleScenario.node[6].nic.mac1609_4 	SNIRLostPackets 	6
scalar RSUExampleScenario.node[6].nic.mac1609_4 	RXTXLostPackets 	0
scalar RSUExampleScenario.node[6].nic.mac1609_4 	TotalLostPackets 	6
scalar RSUExampleScenario.node[6].nic.mac1609_4 	DroppedPacketsInMac 	0
scalar RSUExampleScenario.node[6].nic.mac1609_4 	TooLittleTime 	0
scalar RSUExampleScenario.node[6].nic.mac1609_4 	TimesIntoBackoff 	2
scalar RSUExampleScenario.node[6].nic.mac1609_4 	SlotsBackoff 	7
scalar RSUExampleScenario.node[6].nic.mac1609_4 	NumInternalContention 	0
scalar RSUExampleScenario.node[6].nic.mac1609_4 	totalBusyTime 	0.001729
scalar RSUExampleScenario.node[6].veinsmobility 	startTime 	12
scalar RSUExampleScenario.node[6].veinsmobility 	totalTime 	632
scalar RSUExampleScenario.node[6].veinsmobility 	stopTime 	645
scalar RSUExampleScenario.node[6].veinsmobility 	minSpeed 	0
scalar RSUExampleScenario.node[6].veinsmobility 	maxSpeed 	27.77085675759
scalar RSUExampleScenario.node[6].veinsmobility 	totalDistance 	3396.2298041349
scalar RSUExampleScenario.node[6].veinsmobility 	totalCO2Emission 	1162.2478608648
scalar RSUExampleScenario.node[18].nic.phy80211p 	busyTime 	4.6905537459283e-06
scalar RSUExampleScenario.node[18].nic.mac1609_4 	ReceivedUnicastPackets 	0
scalar RSUExampleScenario.node[18].nic.mac1609_4 	ReceivedBroadcasts 	17
scalar RSUExampleScenario.node[18].nic.mac1609_4 	SentPackets 	1
scalar RSUExampleScenario.node[18].nic.mac1609_4 	SNIRLostPackets 	13
scalar RSUExampleScenario.node[18].nic.mac1609_4 	RXTXLostPackets 	0
scalar RSUExampleScenario.node[18].nic.mac1609_4 	TotalLostPackets 	13
scalar RSUExampleScenario.node[18].nic.mac1609_4 	DroppedPacketsInMac 	0
scalar RSUExampleScenario.node[18].nic.mac1609_4 	TooLittleTime 	0
scalar RSUExampleScenario.node[18].nic.mac1609_4 	TimesIntoBackoff 	1
scalar RSUExampleScenario.node[18].nic.mac1609_4 	SlotsBackoff 	0
scalar RSUExampleScenario.node[18].nic.mac1609_4 	NumInternalContention 	0
scalar RSUExampleScenario.node[18].nic.mac1609_4 	totalBusyTime 	0.002305
scalar RSUExampleScenario.node[18].veinsmobility 	startTime 	33
scalar RSUExampleScenario.node[18].veinsmobility 	totalTime 	613
scalar RSUExampleScenario.node[18].veinsmobility 	stopTime 	647
scalar RSUExampleScenario.node[18].veinsmobility 	minSpeed 	0
scalar RSUExampleScenario.node[18].veinsmobility 	maxSpeed 	27.775200882433
scalar RSUExampleScenario.node[18].veinsmobility 	totalDistance 	3401.7310542777
scalar RSUExampleScenario.node[18].veinsmobility 	totalCO2Emission 	1382.1873041534
scalar RSUExampleScenario.node[54].nic.phy80211p 	busyTime 	3.7127071823204e-06
scalar RSUExampleScenario.node[54].nic.mac1609_4 	ReceivedUnicastPackets 	0
scalar RSUExampleScenario.node[54].nic.mac1609_4 	ReceivedBroadcasts 	18
scalar RSUExampleScenario.node[54].nic.mac1609_4 	SentPackets 	1
scalar RSUExampleScenario.node[54].nic.mac1609_4 	SNIRLostPackets 	3
scalar RSUExampleScenario.node[54].nic.mac1609_4 	RXTXLostPackets 	0
scalar RSUExampleScenario.node[54].nic.mac1609_4 	TotalLostPackets 	3
scalar RSUExampleScenario.node[54].nic.mac1609_4 	DroppedPacketsInMac 	0
scalar RSUExampleScenario.node[54].nic.mac1609_4 	TooLittleTime 	0
scalar RSUExampleScenario.node[54].nic.mac1609_4 	TimesIntoBackoff 	2
scalar RSUExampleScenario.node[54].nic.mac1609_4 	SlotsBackoff 	9
scalar RSUExampleScenario.node[54].nic.mac1609_4 	NumInternalContention 	0
scalar RSUExampleScenario.node[54].nic.mac1609_4 	totalBusyTime 	0.001921
scalar RSUExampleScenario.node[54].veinsmobility 	startTime 	106
scalar RSUExampleScenario.node[54].veinsmobility 	totalTime 	542
scalar RSUExampleScenario.node[54].veinsmobility 	stopTime 	649
scalar RSUExampleScenario.node[54].veinsmobility 	minSpeed 	0
scalar RSUExampleScenario.node[54].veinsmobility 	maxSpeed 	27.770930534191
scalar RSUExampleScenario.node[54].veinsmobility 	totalDistance 	3393.7255498626
scalar RSUExampleScenario.node[54].veinsmobility 	totalCO2Emission 	1261.9863625988
scalar RSUExampleScenario.node[14].nic.phy80211p 	busyTime 	3.9936e-06
scalar RSUExampleScenario.node[14].nic.mac1609_4 	ReceivedUnicastPackets 	0
scalar RSUExampleScenario.node[14].nic.mac1609_4 	ReceivedBroadcasts 	16
scalar RSUExampleScenario.node[14].nic.mac1609_4 	SentPackets 	1
scalar RSUExampleScenario.node[14].nic.mac1609_4 	SNIRLostPackets 	10
scalar RSUExampleScenario.node[14].nic.mac1609_4 	RXTXLostPackets 	0
scalar RSUExampleScenario.node[14].nic.mac1609_4 	TotalLostPackets 	10
scalar RSUExampleScenario.node[14].nic.mac1609_4 	DroppedPacketsInMac 	0
scalar RSUExampleScenario.node[14].nic.mac1609_4 	TooLittleTime 	0
scalar RSUExampleScenario.node[14].nic.mac1609_4 	TimesIntoBackoff 	1
scalar RSUExampleScenario.node[14].nic.mac1609_4 	SlotsBackoff 	6
scalar RSUExampleScenario.node[14].nic.mac1609_4 	NumInternalContention 	0
scalar RSUExampleScenario.node[14].nic.mac1609_4 	totalBusyTime 	0.002017
scalar RSUExampleScenario.node[14].veinsmobility 	startTime 	27
scalar RSUExampleScenario.node[14].veinsmobility 	totalTime 	624
scalar RSUExampleScenario.node[14].veinsmobility 	stopTime 	652
scalar RSUExampleScenario.node[14].veinsmobility 	minSpeed 	0
scalar RSUExampleScenario.node[14].veinsmobility 	maxSpeed 	27.714855396627
scalar RSUExampleScenario.node[14].veinsmobility 	totalDistance 	3411.58357084
scalar RSUExampleScenario.node[14].veinsmobility 	totalCO2Emission 	1434.8128758878
scalar RSUExampleScenario.node[25].nic.phy80211p 	busyTime 	5.5263157894737e-06
scalar RSUExampleScenario.node[25].nic.mac1609_4 	ReceivedUnicastPackets 	0
scalar RSUExampleScenario.node[25].nic.mac1609_4 	ReceivedBroadcasts 	21
scalar RSUExampleScenario.node[25].nic.mac1609_4 	SentPackets 	1
scalar RSUExampleScenario.node[25].nic.mac1609_4 	SNIRLostPackets 	14
scalar RSUExampleScenario.node[25].nic.mac1609_4 	RXTXLostPackets 	2
scalar RSUExampleScenario.node[25].nic.mac1609_4 	TotalLostPackets 	16
scalar RSUExampleScenario.node[25].nic.mac1609_4 	DroppedPacketsInMac 	0
scalar RSUExampleScenario.node[25].nic.mac1609_4 	TooLittleTime 	0
scalar RSUExampleScenario.node[25].nic.mac1609_4 	TimesIntoBackoff 	1
scalar RSUExampleScenario.node[25].nic.mac1609_4 	SlotsBackoff 	7
scalar RSUExampleScenario.node[25].nic.mac1609_4 	NumInternalContention 	0
scalar RSUExampleScenario.node[25].nic.mac1609_4 	totalBusyTime 	0.002689
scalar RSUExampleScenario.node[25].veinsmobility 	startTime 	46
scalar RSUExampleScenario.node[25].veinsmobility 	totalTime 	607
scalar RSUExampleScenario.node[25].veinsmobility 	stopTime 	654
scalar RSUExampleScenario.node[25].veinsmobility 	minSpeed 	0
scalar RSUExampleScenario.node[25].veinsmobility 	maxSpeed 	27.768074094756
scalar RSUExampleScenario.node[25].veinsmobility 	totalDistance 	3403.0787360881
scalar RSUExampleScenario.node[25].veinsmobility 	totalCO2Emission 	1390.4029253012
scalar RSUExampleScenario.node[33].nic.phy80211p 	busyTime 	5.9597315436242e-06
scalar RSUExampleScenario.node[33].nic.mac1609_4 	ReceivedUnicastPackets 	0
scalar RSUExampleScenario.node[33].nic.mac1609_4 	ReceivedBroadcasts 	31
scalar RSUExampleScenario.node[33].nic.mac1609_4 	SentPackets 	1
scalar RSUExampleScenario.node[33].nic.mac1609_4 	SNIRLostPackets 	6
scalar RSUExampleScenario.node[33].nic.mac1609_4 	RXTXLostPackets 	0
scalar RSUExampleScenario.node[33].nic.mac1609_4 	TotalLostPackets 	6
scalar RSUExampleScenario.node[33].nic.mac1609_4 	DroppedPacketsInMac 	0
scalar RSUExampleScenario.node[33].nic.mac1609_4 	TooLittleTime 	0
scalar RSUExampleScenario.node[33].nic.mac1609_4 	TimesIntoBackoff 	1
scalar RSUExampleScenario.node[33].nic.mac1609_4 	SlotsBackoff 	1
scalar RSUExampleScenario.node[33].nic.mac1609_4 	NumInternalContention 	0
scalar RSUExampleScenario.node[33].nic.mac1609_4 	totalBusyTime 	0.003265
scalar RSUExampleScenario.node[33].veinsmobility 	startTime 	60
scalar RSUExampleScenario.node[33].veinsmobility 	totalTime 	595
scalar RSUExampleScenario.node[33].veinsmobility 	stopTime 	656
scalar RSUExampleScenario.node[33].veinsmobility 	minSpeed 	0
scalar RSUExampleScenario.node[33].veinsmobility 	maxSpeed 	27.76541718171
scalar RSUExampleScenario.node[33].veinsmobility 	totalDistance 	3398.1837115431
scalar RSUExampleScenario.node[33].veinsmobility 	totalCO2Emission 	1374.9059731536
scalar RSUExampleScenario.node[29].nic.phy80211p 	busyTime 	5.5445544554455e-06
scalar RSUExampleScenario.node[29].nic.mac1609_4 	ReceivedUnicastPackets 	0
scalar RSUExampleScenario.node[29].nic.mac1609_4 	ReceivedBroadcasts 	22
scalar RSUExampleScenario.node[29].nic.mac1609_4 	SentPackets 	1
scalar RSUExampleScenario.node[29].nic.mac1609_4 	SNIRLostPackets 	13
scalar RSUExampleScenario.node[29].nic.mac1609_4 	RXTXLostPackets 	0
scalar RSUExampleScenario.node[29].nic.mac1609_4 	TotalLostPackets 	13
scalar RSUExampleScenario.node[29].nic.mac1609_4 	DroppedPacketsInMac 	0
scalar RSUExampleScenario.node[29].nic.mac1609_4 	TooLittleTime 	0
scalar RSUExampleScenario.node[29].nic.mac1609_4 	TimesIntoBackoff 	1
scalar RSUExampleScenario.node[29].nic.mac1609_4 	SlotsBackoff 	7
scalar RSUExampleScenario.node[29].nic.mac1609_4 	NumInternalContention 	0
scalar RSUExampleScenario.node[29].nic.mac1609_4 	totalBusyTime 	0.002689
scalar RSUExampleScenario.node[29].veinsmobility 	startTime 	53
scalar RSUExampleScenario.node[29].veinsmobility 	totalTime 	605
scalar RSUExampleScenario.node[29].veinsmobility 	stopTime 	659
scalar RSUExampleScenario.node[29].veinsmobility 	minSpeed 	0
scalar RSUExampleScenario.node[29].veinsmobility 	maxSpeed 	16.658238989282
scalar RSUExampleScenario.node[29].veinsmobility 	totalDistance 	3259.7314764474
scalar RSUExampleScenario.node[29].veinsmobility 	totalCO2Emission 	1151.1086618471
scalar RSUExampleScenario.node[39].nic.phy80211p 	busyTime 	7.1714770797963e-06
scalar RSUExampleScenario.node[39].nic.mac1609_4 	ReceivedUnicastPackets 	0
scalar RSUExampleScenario.node[39].nic.mac1609_4 	ReceivedBroadcasts 	35
scalar RSUExampleScenario.node[39].nic.mac1609_4 	SentPackets 	1
scalar RSUExampleScenario.node[39].nic.mac1609_4 	SNIRLostPackets 	9
scalar RSUExampleScenario.node[39].nic.mac1609_4 	RXTXLostPackets 	1
scalar RSUExampleScenario.node[39].nic.mac1609_4 	TotalLostPackets 	10
scalar RSUExampleScenario.node[39].nic.mac1609_4 	DroppedPacketsInMac 	0
scalar RSUExampleScenario.node[39].nic.mac1609_4 	TooLittleTime 	0
scalar RSUExampleScenario.node[39].nic.mac1609_4 	TimesIntoBackoff 	1
scalar RSUExampleScenario.node[39].nic.mac1609_4 	SlotsBackoff 	0
scalar RSUExampleScenario.node[39].nic.mac1609_4 	NumInternalContention 	0
scalar RSUExampleScenario.node[39].nic.mac1609_4 	totalBusyTime 	0.003745005016
scalar RSUExampleScenario.node[39].veinsmobility 	startTime 	72
scalar RSUExampleScenario.node[39].veinsmobility 	totalTime 	588
scalar RSUExampleScenario.node[39].veinsmobility 	stopTime 	661
scalar RSUExampleScenario.node[39].veinsmobility 	minSpeed 	0
scalar RSUExampleScenario.node[39].veinsmobility 	maxSpeed 	27.75902772231
scalar RSUExampleScenario.node[39].veinsmobility 	totalDistance 	3403.2989400582
scalar RSUExampleScenario.node[39].veinsmobility 	totalCO2Emission 	1362.137825369
scalar RSUExampleScenario.node[69].nic.phy80211p 	busyTime 	7.3984962406015e-06
scalar RSUExampleScenario.node[69].nic.mac1609_4 	ReceivedUnicastPackets 	0
scalar RSUExampleScenario.node[69].nic.mac1609_4 	ReceivedBroadcasts 	19
scalar RSUExampleScenario.node[69].nic.mac1609_4 	SentPackets 	1
scalar RSUExampleScenario.node[69].nic.mac1609_4 	SNIRLostPackets 	22
scalar RSUExampleScenario.node[69].nic.mac1609_4 	RXTXLostPackets 	1
scalar RSUExampleScenario.node[69].nic.mac1609_4 	TotalLostPackets 	23
scalar RSUExampleScenario.node[69].nic.mac1609_4 	DroppedPacketsInMac 	0
scalar RSUExampleScenario.node[69].nic.mac1609_4 	TooLittleTime 	0
scalar RSUExampleScenario.node[69].nic.mac1609_4 	TimesIntoBackoff 	2
scalar RSUExampleScenario.node[69].nic.mac1609_4 	SlotsBackoff 	3
scalar RSUExampleScenario.node[69].nic.mac1609_4 	NumInternalContention 	0
scalar RSUExampleScenario.node[69].nic.mac1609_4 	totalBusyTime 	0.002881
scalar RSUExampleScenario.node[69].veinsmobility 	startTime 	140
scalar RSUExampleScenario.node[69].veinsmobility 	totalTime 	531
scalar RSUExampleScenario.node[69].veinsmobility 	stopTime 	672
scalar RSUExampleScenario.node[69].veinsmobility 	minSpeed 	0
scalar RSUExampleScenario.node[69].veinsmobility 	maxSpeed 	27.763761525387
scalar RSUExampleScenario.node[69].veinsmobility 	totalDistance 	3399.0549906684
scalar RSUExampleScenario.node[69].veinsmobility 	totalCO2Emission 	1290.630056635
scalar RSUExampleScenario.node[30].nic.phy80211p 	busyTime 	5.1179321486268e-06
scalar RSUExampleScenario.node[30].nic.mac1609_4 	ReceivedUnicastPackets 	0
scalar RSUExampleScenario.node[30].nic.mac1609_4 	ReceivedBroadcasts 	23
scalar RSUExampleScenario.node[30].nic.mac1609_4 	SentPackets 	1
scalar RSUExampleScenario.node[30].nic.mac1609_4 	SNIRLostPackets 	10
scalar RSUExampleScenario.node[30].nic.mac1609_4 	RXTXLostPackets 	0
scalar RSUExampleScenario.node[30].nic.mac1609_4 	TotalLostPackets 	10
scalar RSUExampleScenario.node[30].nic.mac1609_4 	DroppedPacketsInMac 	0
scalar RSUExampleScenario.node[30].nic.mac1609_4 	TooLittleTime 	0
scalar RSUExampleScenario.node[30].nic.mac1609_4 	TimesIntoBackoff 	1
scalar RSUExampleScenario.node[30].nic.mac1609_4 	SlotsBackoff 	5
scalar RSUExampleScenario.node[30].nic.mac1609_4 	NumInternalContention 	0
scalar RSUExampleScenario.node[30].nic.mac1609_4 	totalBusyTime 	0.002765927044
scalar RSUExampleScenario.node[30].veinsmobility 	startTime 	55
scalar RSUExampleScenario.node[30].veinsmobility 	totalTime 	618
scalar RSUExampleScenario.node[30].veinsmobility 	stopTime 	674
scalar RSUExampleScenario.node[30].veinsmobility 	minSpeed 	0
scalar RSUExampleScenario.node[30].veinsmobility 	maxSpeed 	16.655041422173
scalar RSUExampleScenario.node[30].veinsmobility 	totalDistance 	3252.9404352365
scalar RSUExampleScenario.node[30].veinsmobility 	totalCO2Emission 	1192.8471120538
scalar RSUExampleScenario.node[28].nic.phy80211p 	busyTime 	5.3674121405751e-06
scalar RSUExampleScenario.node[28].nic.mac1609_4 	ReceivedUnicastPackets 	0
scalar RSUExampleScenario.node[28].nic.mac1609_4 	ReceivedBroadcasts 	22
scalar RSUExampleScenario.node[28].nic.mac1609_4 	SentPackets 	1
scalar RSUExampleScenario.node[28].nic.mac1609_4 	SNIRLostPackets 	13
scalar RSUExampleScenario.node[28].nic.mac1609_4 	RXTXLostPackets 	0
scalar RSUExampleScenario.node[28].nic.mac1609_4 	TotalLostPackets 	13
scalar RSUExampleScenario.node[28].nic.mac1609_4 	DroppedPacketsInMac 	0
scalar RSUExampleScenario.node[28].nic.mac1609_4 	TooLittleTime 	0
scalar RSUExampleScenario.node[28].nic.mac1609_4 	TimesIntoBackoff 	2
scalar RSUExampleScenario.node[28].nic.mac1609_4 	SlotsBackoff 	9
scalar RSUExampleScenario.node[28].nic.mac1609_4 	NumInternalContention 	0
scalar RSUExampleScenario.node[28].nic.mac1609_4 	totalBusyTime 	0.002689
scalar RSUExampleScenario.node[28].veinsmobility 	startTime 	51
scalar RSUExampleScenario.node[28].veinsmobility 	totalTime 	625
scalar RSUExampleScenario.node[28].veinsmobility 	stopTime 	677
scalar RSUExampleScenario.node[28].veinsmobility 	minSpeed 	0
scalar RSUExampleScenario.node[28].veinsmobility 	maxSpeed 	16.668453007322
scalar RSUExampleScenario.node[28].veinsmobility 	totalDistance 	3358.968634387
scalar RSUExampleScenario.node[28].veinsmobility 	totalCO2Emission 	1235.3494084975
scalar RSUExampleScenario.node[32].nic.phy80211p 	busyTime 	4.3285024154589e-06
scalar RSUExampleScenario.node[32].nic.mac1609_4 	ReceivedUnicastPackets 	0
scalar RSUExampleScenario.node[32].nic.mac1609_4 	ReceivedBroadcasts 	22
scalar RSUExampleScenario.node[32].nic.mac1609_4 	SentPackets 	1
scalar RSUExampleScenario.node[32].nic.mac1609_4 	SNIRLostPackets 	6
scalar RSUExampleScenario.node[32].nic.mac1609_4 	RXTXLostPackets 	0
scalar RSUExampleScenario.node[32].nic.mac1609_4 	TotalLostPackets 	6
scalar RSUExampleScenario.node[32].nic.mac1609_4 	DroppedPacketsInMac 	0
scalar RSUExampleScenario.node[32].nic.mac1609_4 	TooLittleTime 	0
scalar RSUExampleScenario.node[32].nic.mac1609_4 	TimesIntoBackoff 	2
scalar RSUExampleScenario.node[32].nic.mac1609_4 	SlotsBackoff 	5
scalar RSUExampleScenario.node[32].nic.mac1609_4 	NumInternalContention 	0
scalar RSUExampleScenario.node[32].nic.mac1609_4 	totalBusyTime 	0.002401
scalar RSUExampleScenario.node[32].veinsmobility 	startTime 	58
scalar RSUExampleScenario.node[32].veinsmobility 	totalTime 	620
scalar RSUExampleScenario.node[32].veinsmobility 	stopTime 	679
scalar RSUExampleScenario.node[32].veinsmobility 	minSpeed 	0
scalar RSUExampleScenario.node[32].veinsmobility 	maxSpeed 	16.66444731514
scalar RSUExampleScenario.node[32].veinsmobility 	totalDistance 	3255.8480624805
scalar RSUExampleScenario.node[32].veinsmobility 	totalCO2Emission 	1146.7583022437
scalar RSUExampleScenario.node[56].nic.phy80211p 	busyTime 	3.6987740805604e-06
scalar RSUExampleScenario.node[56].nic.mac1609_4 	ReceivedUnicastPackets 	0
scalar RSUExampleScenario.node[56].nic.mac1609_4 	ReceivedBroadcasts 	19
scalar RSUExampleScenario.node[56].nic.mac1609_4 	SentPackets 	1
scalar RSUExampleScenario.node[56].nic.mac1609_4 	SNIRLostPackets 	3
scalar RSUExampleScenario.node[56].nic.mac1609_4 	RXTXLostPackets 	1
scalar RSUExampleScenario.node[56].nic.mac1609_4 	TotalLostPackets 	4
scalar RSUExampleScenario.node[56].nic.mac1609_4 	DroppedPacketsInMac 	0
scalar RSUExampleScenario.node[56].nic.mac1609_4 	TooLittleTime 	0
scalar RSUExampleScenario.node[56].nic.mac1609_4 	TimesIntoBackoff 	2
scalar RSUExampleScenario.node[56].nic.mac1609_4 	SlotsBackoff 	7
scalar RSUExampleScenario.node[56].nic.mac1609_4 	NumInternalContention 	0
scalar RSUExampleScenario.node[56].nic.mac1609_4 	totalBusyTime 	0.002017
scalar RSUExampleScenario.node[56].veinsmobility 	startTime 	110
scalar RSUExampleScenario.node[56].veinsmobility 	totalTime 	570
scalar RSUExampleScenario.node[56].veinsmobility 	stopTime 	681
scalar RSUExampleScenario.node[56].veinsmobility 	minSpeed 	0
scalar RSUExampleScenario.node[56].veinsmobility 	maxSpeed 	27.757585269846
scalar RSUExampleScenario.node[56].veinsmobility 	totalDistance 	3397.1609769107
scalar RSUExampleScenario.node[56].veinsmobility 	totalCO2Emission 	1390.6151043983
scalar RSUExampleScenario.node[53].nic.phy80211p 	busyTime 	3.4818652849741e-06
scalar RSUExampleScenario.node[53].nic.mac1609_4 	ReceivedUnicastPackets 	0
scalar RSUExampleScenario.node[53].nic.mac1609_4 	ReceivedBroadcasts 	18
scalar RSUExampleScenario.node[53].nic.mac1609_4 	SentPackets 	1
scalar RSUExampleScenario.node[53].nic.mac1609_4 	SNIRLostPackets 	3
scalar RSUExampleScenario.node[53].nic.mac1609_4 	RXTXLostPackets 	0
scalar RSUExampleScenario.node[53].nic.mac1609_4 	TotalLostPackets 	3
scalar RSUExampleScenario.node[53].nic.mac1609_4 	DroppedPacketsInMac 	0
scalar RSUExampleScenario.node[53].nic.mac1609_4 	TooLittleTime 	0
scalar RSUExampleScenario.node[53].nic.mac1609_4 	TimesIntoBackoff 	1
scalar RSUExampleScenario.node[53].nic.mac1609_4 	SlotsBackoff 	7
scalar RSUExampleScenario.node[53].nic.mac1609_4 	NumInternalContention 	0
scalar RSUExampleScenario.node[53].nic.mac1609_4 	totalBusyTime 	0.001921
scalar RSUExampleScenario.node[53].veinsmobility 	startTime 	104
scalar RSUExampleScenario.node[53].veinsmobility 	totalTime 	578
scalar RSUExampleScenario.node[53].veinsmobility 	stopTime 	683
scalar RSUExampleScenario.node[53].veinsmobility 	minSpeed 	0
scalar RSUExampleScenario.node[53].veinsmobility 	maxSpeed 	27.779545805901
scalar RSUExampleScenario.node[53].veinsmobility 	totalDistance 	3400.3345772351
scalar RSUExampleScenario.node[53].veinsmobility 	totalCO2Emission 	1352.3373791585
scalar RSUExampleScenario.node[27].nic.phy80211p 	busyTime 	5.425431711146e-06
scalar RSUExampleScenario.node[27].nic.mac1609_4 	ReceivedUnicastPackets 	0
scalar RSUExampleScenario.node[27].nic.mac1609_4 	ReceivedBroadcasts 	21
scalar RSUExampleScenario.node[27].nic.mac1609_4 	SentPackets 	1
scalar RSUExampleScenario.node[27].nic.mac1609_4 	SNIRLostPackets 	15
scalar RSUExampleScenario.node[27].nic.mac1609_4 	RXTXLostPackets 	0
scalar RSUExampleScenario.node[27].nic.mac1609_4 	TotalLostPackets 	15
scalar RSUExampleScenario.node[27].nic.mac1609_4 	DroppedPacketsInMac 	0
scalar RSUExampleScenario.node[27].nic.mac1609_4 	TooLittleTime 	0
scalar RSUExampleScenario.node[27].nic.mac1609_4 	TimesIntoBackoff 	1
scalar RSUExampleScenario.node[27].nic.mac1609_4 	SlotsBackoff 	6
scalar RSUExampleScenario.node[27].nic.mac1609_4 	NumInternalContention 	0
scalar RSUExampleScenario.node[27].nic.mac1609_4 	totalBusyTime 	0.002689
scalar RSUExampleScenario.node[27].veinsmobility 	startTime 	49
scalar RSUExampleScenario.node[27].veinsmobility 	totalTime 	636
scalar RSUExampleScenario.node[27].veinsmobility 	stopTime 	686
scalar RSUExampleScenario.node[27].veinsmobility 	minSpeed 	0
scalar RSUExampleScenario.node[27].veinsmobility 	maxSpeed 	16.666772636361
scalar RSUExampleScenario.node[27].veinsmobility 	totalDistance 	3360.6182113593
scalar RSUExampleScenario.node[27].veinsmobility 	totalCO2Emission 	1204.6507209654
scalar RSUExampleScenario.node[57].nic.phy80211p 	busyTime 	4.1739130434783e-06
scalar RSUExampleScenario.node[57].nic.mac1609_4 	ReceivedUnicastPackets 	0
scalar RSUExampleScenario.node[57].nic.mac1609_4 	ReceivedBroadcasts 	17
scalar RSUExampleScenario.node[57].nic.mac1609_4 	SentPackets 	1
scalar RSUExampleScenario.node[57].nic.mac1609_4 	SNIRLostPackets 	8
scalar RSUExampleScenario.node[57].nic.mac1609_4 	RXTXLostPackets 	0
scalar RSUExampleScenario.node[57].nic.mac1609_4 	TotalLostPackets 	8
scalar RSUExampleScenario.node[57].nic.mac1609_4 	DroppedPacketsInMac 	0
scalar RSUExampleScenario.node[57].nic.mac1609_4 	TooLittleTime 	0
scalar RSUExampleScenario.node[57].nic.mac1609_4 	TimesIntoBackoff 	2
scalar RSUExampleScenario.node[57].nic.mac1609_4 	SlotsBackoff 	8
scalar RSUExampleScenario.node[57].nic.mac1609_4 	NumInternalContention 	0
scalar RSUExampleScenario.node[57].nic.mac1609_4 	totalBusyTime 	0.002113
scalar RSUExampleScenario.node[57].veinsmobility 	startTime 	113
scalar RSUExampleScenario.node[57].veinsmobility 	totalTime 	574
scalar RSUExampleScenario.node[57].veinsmobility 	stopTime 	688
scalar RSUExampleScenario.node[57].veinsmobility 	minSpeed 	0
scalar RSUExampleScenario.node[57].veinsmobility 	maxSpeed 	27.755518944077
scalar RSUExampleScenario.node[57].veinsmobility 	totalDistance 	3404.6104578968
scalar RSUExampleScenario.node[57].veinsmobility 	totalCO2Emission 	1349.1777994417
scalar RSUExampleScenario.node[95].nic.phy80211p 	busyTime 	6.4e-06
scalar RSUExampleScenario.node[95].nic.mac1609_4 	ReceivedUnicastPackets 	0
scalar RSUExampleScenario.node[95].nic.mac1609_4 	ReceivedBroadcasts 	21
scalar RSUExampleScenario.node[95].nic.mac1609_4 	SentPackets 	1
scalar RSUExampleScenario.node[95].nic.mac1609_4 	SNIRLostPackets 	13
scalar RSUExampleScenario.node[95].nic.mac1609_4 	RXTXLostPackets 	0
scalar RSUExampleScenario.node[95].nic.mac1609_4 	TotalLostPackets 	13
scalar RSUExampleScenario.node[95].nic.mac1609_4 	DroppedPacketsInMac 	0
scalar RSUExampleScenario.node[95].nic.mac1609_4 	TooLittleTime 	0
scalar RSUExampleScenario.node[95].nic.mac1609_4 	TimesIntoBackoff 	1
scalar RSUExampleScenario.node[95].nic.mac1609_4 	SlotsBackoff 	6
scalar RSUExampleScenario.node[95].nic.mac1609_4 	NumInternalContention 	0
scalar RSUExampleScenario.node[95].nic.mac1609_4 	totalBusyTime 	0.002689
scalar RSUExampleScenario.node[95].veinsmobility 	startTime 	201
scalar RSUExampleScenario.node[95].veinsmobility 	totalTime 	509
scalar RSUExampleScenario.node[95].veinsmobility 	stopTime 	711
scalar RSUExampleScenario.node[95].veinsmobility 	minSpeed 	0
scalar RSUExampleScenario.node[95].veinsmobility 	maxSpeed 	27.766811607615
scalar RSUExampleScenario.node[95].veinsmobility 	totalDistance 	3402.3519423785
scalar RSUExampleScenario.node[95].veinsmobility 	totalCO2Emission 	1153.3390607541
scalar RSUExampleScenario.node[103].nic.phy80211p 	busyTime 	7.3268101761252e-06
scalar RSUExampleScenario.node[103].nic.mac1609_4 	ReceivedUnicastPackets 	0
scalar RSUExampleScenario.node[103].nic.mac1609_4 	ReceivedBroadcasts 	26
scalar RSUExampleScenario.node[103].nic.mac1609_4 	SentPackets 	1
scalar RSUExampleScenario.node[103].nic.mac1609_4 	SNIRLostPackets 	13
scalar RSUExampleScenario.node[103].nic.mac1609_4 	RXTXLostPackets 	1
scalar RSUExampleScenario.node[103].nic.mac1609_4 	TotalLostPackets 	14
scalar RSUExampleScenario.node[103].nic.mac1609_4 	DroppedPacketsInMac 	0
scalar RSUExampleScenario.node[103].nic.mac1609_4 	TooLittleTime 	0
scalar RSUExampleScenario.node[103].nic.mac1609_4 	TimesIntoBackoff 	1
scalar RSUExampleScenario.node[103].nic.mac1609_4 	SlotsBackoff 	1
scalar RSUExampleScenario.node[103].nic.mac1609_4 	NumInternalContention 	0
scalar RSUExampleScenario.node[103].nic.mac1609_4 	totalBusyTime 	0.003169012135
scalar RSUExampleScenario.node[103].veinsmobility 	startTime 	219
scalar RSUExampleScenario.node[103].veinsmobility 	totalTime 	510
scalar RSUExampleScenario.node[103].veinsmobility 	stopTime 	730
scalar RSUExampleScenario.node[103].veinsmobility 	minSpeed 	0
scalar RSUExampleScenario.node[103].veinsmobility 	maxSpeed 	27.769580635132
scalar RSUExampleScenario.node[103].veinsmobility 	totalDistance 	3397.1936880666
scalar RSUExampleScenario.node[103].veinsmobility 	totalCO2Emission 	1082.3924398129
scalar RSUExampleScenario.node[100].nic.phy80211p 	busyTime 	6.6206896551724e-06
scalar RSUExampleScenario.node[100].nic.mac1609_4 	ReceivedUnicastPackets 	0
scalar RSUExampleScenario.node[100].nic.mac1609_4 	ReceivedBroadcasts 	27
scalar RSUExampleScenario.node[100].nic.mac1609_4 	SentPackets 	1
scalar RSUExampleScenario.node[100].nic.mac1609_4 	SNIRLostPackets 	9
scalar RSUExampleScenario.node[100].nic.mac1609_4 	RXTXLostPackets 	2
scalar RSUExampleScenario.node[100].nic.mac1609_4 	TotalLostPackets 	11
scalar RSUExampleScenario.node[100].nic.mac1609_4 	DroppedPacketsInMac 	0
scalar RSUExampleScenario.node[100].nic.mac1609_4 	TooLittleTime 	0
scalar RSUExampleScenario.node[100].nic.mac1609_4 	TimesIntoBackoff 	2
scalar RSUExampleScenario.node[100].nic.mac1609_4 	SlotsBackoff 	5
scalar RSUExampleScenario.node[100].nic.mac1609_4 	NumInternalContention 	0
scalar RSUExampleScenario.node[100].nic.mac1609_4 	totalBusyTime 	0.003073221194
scalar RSUExampleScenario.node[100].veinsmobility 	startTime 	212
scalar RSUExampleScenario.node[100].veinsmobility 	totalTime 	521
scalar RSUExampleScenario.node[100].veinsmobility 	stopTime 	734
scalar RSUExampleScenario.node[100].veinsmobility 	minSpeed 	0
scalar RSUExampleScenario.node[100].veinsmobility 	maxSpeed 	27.754431519716
scalar RSUExampleScenario.node[100].veinsmobility 	totalDistance 	3402.1622476827
scalar RSUExampleScenario.node[100].veinsmobility 	totalCO2Emission 	1110.3059885257
scalar RSUExampleScenario.node[104].nic.phy80211p 	busyTime 	7.6946564885496e-06
scalar RSUExampleScenario.node[104].nic.mac1609_4 	ReceivedUnicastPackets 	0
scalar RSUExampleScenario.node[104].nic.mac1609_4 	ReceivedBroadcasts 	27
scalar RSUExampleScenario.node[104].nic.mac1609_4 	SentPackets 	1
scalar RSUExampleScenario.node[104].nic.mac1609_4 	SNIRLostPackets 	15
scalar RSUExampleScenario.node[104].nic.mac1609_4 	RXTXLostPackets 	0
scalar RSUExampleScenario.node[104].nic.mac1609_4 	TotalLostPackets 	15
scalar RSUExampleScenario.node[104].nic.mac1609_4 	DroppedPacketsInMac 	0
scalar RSUExampleScenario.node[104].nic.mac1609_4 	TooLittleTime 	0
scalar RSUExampleScenario.node[104].nic.mac1609_4 	TimesIntoBackoff 	1
scalar RSUExampleScenario.node[104].nic.mac1609_4 	SlotsBackoff 	7
scalar RSUExampleScenario.node[104].nic.mac1609_4 	NumInternalContention 	0
scalar RSUExampleScenario.node[104].nic.mac1609_4 	totalBusyTime 	0.003361
scalar RSUExampleScenario.node[104].veinsmobility 	startTime 	221
scalar RSUExampleScenario.node[104].veinsmobility 	totalTime 	523
scalar RSUExampleScenario.node[104].veinsmobility 	stopTime 	745
scalar RSUExampleScenario.node[104].veinsmobility 	minSpeed 	0
scalar RSUExampleScenario.node[104].veinsmobility 	maxSpeed 	27.771875324283
scalar RSUExampleScenario.node[104].veinsmobility 	totalDistance 	3401.678060499
scalar RSUExampleScenario.node[104].veinsmobility 	totalCO2Emission 	1088.6413183776
scalar RSUExampleScenario.node[97].nic.phy80211p 	busyTime 	6.1878453038674e-06
scalar RSUExampleScenario.node[97].nic.mac1609_4 	ReceivedUnicastPackets 	0
scalar RSUExampleScenario.node[97].nic.mac1609_4 	ReceivedBroadcasts 	24
scalar RSUExampleScenario.node[97].nic.mac1609_4 	SentPackets 	1
scalar RSUExampleScenario.node[97].nic.mac1609_4 	SNIRLostPackets 	11
scalar RSUExampleScenario.node[97].nic.mac1609_4 	RXTXLostPackets 	0
scalar RSUExampleScenario.node[97].nic.mac1609_4 	TotalLostPackets 	11
scalar RSUExampleScenario.node[97].nic.mac1609_4 	DroppedPacketsInMac 	0
scalar RSUExampleScenario.node[97].nic.mac1609_4 	TooLittleTime 	0
scalar RSUExampleScenario.node[97].nic.mac1609_4 	TimesIntoBackoff 	2
scalar RSUExampleScenario.node[97].nic.mac1609_4 	SlotsBackoff 	6
scalar RSUExampleScenario.node[97].nic.mac1609_4 	NumInternalContention 	0
scalar RSUExampleScenario.node[97].nic.mac1609_4 	totalBusyTime 	0.002785038046
scalar RSUExampleScenario.node[97].veinsmobility 	startTime 	205
scalar RSUExampleScenario.node[97].veinsmobility 	totalTime 	542
scalar RSUExampleScenario.node[97].veinsmobility 	stopTime 	748
scalar RSUExampleScenario.node[97].veinsmobility 	minSpeed 	0
scalar RSUExampleScenario.node[97].veinsmobility 	maxSpeed 	27.721457606326
scalar RSUExampleScenario.node[97].veinsmobility 	totalDistance 	3394.3844534087
scalar RSUExampleScenario.node[97].veinsmobility 	totalCO2Emission 	1261.1309140233
scalar RSUExampleScenario.node[31].nic.phy80211p 	busyTime 	4.4201438848921e-06
scalar RSUExampleScenario.node[31].nic.mac1609_4 	ReceivedUnicastPackets 	0
scalar RSUExampleScenario.node[31].nic.mac1609_4 	ReceivedBroadcasts 	22
scalar RSUExampleScenario.node[31].nic.mac1609_4 	SentPackets 	1
scalar RSUExampleScenario.node[31].nic.mac1609_4 	SNIRLostPackets 	10
scalar RSUExampleScenario.node[31].nic.mac1609_4 	RXTXLostPackets 	0
scalar RSUExampleScenario.node[31].nic.mac1609_4 	TotalLostPackets 	10
scalar RSUExampleScenario.node[31].nic.mac1609_4 	DroppedPacketsInMac 	0
scalar RSUExampleScenario.node[31].nic.mac1609_4 	TooLittleTime 	0
scalar RSUExampleScenario.node[31].nic.mac1609_4 	TimesIntoBackoff 	1
scalar RSUExampleScenario.node[31].nic.mac1609_4 	SlotsBackoff 	2
scalar RSUExampleScenario.node[31].nic.mac1609_4 	NumInternalContention 	0
scalar RSUExampleScenario.node[31].nic.mac1609_4 	totalBusyTime 	0.002669888926
scalar RSUExampleScenario.node[31].veinsmobility 	startTime 	56
scalar RSUExampleScenario.node[31].veinsmobility 	totalTime 	694
scalar RSUExampleScenario.node[31].veinsmobility 	stopTime 	751
scalar RSUExampleScenario.node[31].veinsmobility 	minSpeed 	0
scalar RSUExampleScenario.node[31].veinsmobility 	maxSpeed 	16.64837581059
scalar RSUExampleScenario.node[31].veinsmobility 	totalDistance 	3269.078642344
scalar RSUExampleScenario.node[31].veinsmobility 	totalCO2Emission 	1329.4845329568
scalar RSUExampleScenario.node[34].nic.phy80211p 	busyTime 	3.89001447178e-06
scalar RSUExampleScenario.node[34].nic.mac1609_4 	ReceivedUnicastPackets 	0
scalar RSUExampleScenario.node[34].nic.mac1609_4 	ReceivedBroadcasts 	22
scalar RSUExampleScenario.node[34].nic.mac1609_4 	SentPackets 	1
scalar RSUExampleScenario.node[34].nic.mac1609_4 	SNIRLostPackets 	6
scalar RSUExampleScenario.node[34].nic.mac1609_4 	RXTXLostPackets 	0
scalar RSUExampleScenario.node[34].nic.mac1609_4 	TotalLostPackets 	6
scalar RSUExampleScenario.node[34].nic.mac1609_4 	DroppedPacketsInMac 	0
scalar RSUExampleScenario.node[34].nic.mac1609_4 	TooLittleTime 	0
scalar RSUExampleScenario.node[34].nic.mac1609_4 	TimesIntoBackoff 	2
scalar RSUExampleScenario.node[34].nic.mac1609_4 	SlotsBackoff 	6
scalar RSUExampleScenario.node[34].nic.mac1609_4 	NumInternalContention 	0
scalar RSUExampleScenario.node[34].nic.mac1609_4 	totalBusyTime 	0.002401
scalar RSUExampleScenario.node[34].veinsmobility 	startTime 	62
scalar RSUExampleScenario.node[34].veinsmobility 	totalTime 	690
scalar RSUExampleScenario.node[34].veinsmobility 	stopTime 	753
scalar RSUExampleScenario.node[34].veinsmobility 	minSpeed 	0
scalar RSUExampleScenario.node[34].veinsmobility 	maxSpeed 	16.627939982498
scalar RSUExampleScenario.node[34].veinsmobility 	totalDistance 	3250.6947268981
scalar RSUExampleScenario.node[34].veinsmobility 	totalCO2Emission 	1256.545546421
scalar RSUExampleScenario.node[35].nic.phy80211p 	busyTime 	3.7456647398844e-06
scalar RSUExampleScenario.node[35].nic.mac1609_4 	ReceivedUnicastPackets 	0
scalar RSUExampleScenario.node[35].nic.mac1609_4 	ReceivedBroadcasts 	21
scalar RSUExampleScenario.node[35].nic.mac1609_4 	SentPackets 	1
scalar RSUExampleScenario.node[35].nic.mac1609_4 	SNIRLostPackets 	6
scalar RSUExampleScenario.node[35].nic.mac1609_4 	RXTXLostPackets 	0
scalar RSUExampleScenario.node[35].nic.mac1609_4 	TotalLostPackets 	6
scalar RSUExampleScenario.node[35].nic.mac1609_4 	DroppedPacketsInMac 	0
scalar RSUExampleScenario.node[35].nic.mac1609_4 	TooLittleTime 	0
scalar RSUExampleScenario.node[35].nic.mac1609_4 	TimesIntoBackoff 	2
scalar RSUExampleScenario.node[35].nic.mac1609_4 	SlotsBackoff 	10
scalar RSUExampleScenario.node[35].nic.mac1609_4 	NumInternalContention 	0
scalar RSUExampleScenario.node[35].nic.mac1609_4 	totalBusyTime 	0.002305
scalar RSUExampleScenario.node[35].veinsmobility 	startTime 	64
scalar RSUExampleScenario.node[35].veinsmobility 	totalTime 	691
scalar RSUExampleScenario.node[35].veinsmobility 	stopTime 	756
scalar RSUExampleScenario.node[35].veinsmobility 	minSpeed 	0
scalar RSUExampleScenario.node[35].veinsmobility 	maxSpeed 	16.665408385852
scalar RSUExampleScenario.node[35].veinsmobility 	totalDistance 	3261.2246615811
scalar RSUExampleScenario.node[35].veinsmobility 	totalCO2Emission 	1273.4257210919
scalar RSUExampleScenario.node[37].nic.phy80211p 	busyTime 	3.7565217391304e-06
scalar RSUExampleScenario.node[37].nic.mac1609_4 	ReceivedUnicastPackets 	0
scalar RSUExampleScenario.node[37].nic.mac1609_4 	ReceivedBroadcasts 	21
scalar RSUExampleScenario.node[37].nic.mac1609_4 	SentPackets 	1
scalar RSUExampleScenario.node[37].nic.mac1609_4 	SNIRLostPackets 	6
scalar RSUExampleScenario.node[37].nic.mac1609_4 	RXTXLostPackets 	0
scalar RSUExampleScenario.node[37].nic.mac1609_4 	TotalLostPackets 	6
scalar RSUExampleScenario.node[37].nic.mac1609_4 	DroppedPacketsInMac 	0
scalar RSUExampleScenario.node[37].nic.mac1609_4 	TooLittleTime 	0
scalar RSUExampleScenario.node[37].nic.mac1609_4 	TimesIntoBackoff 	1
scalar RSUExampleScenario.node[37].nic.mac1609_4 	SlotsBackoff 	5
scalar RSUExampleScenario.node[37].nic.mac1609_4 	NumInternalContention 	0
scalar RSUExampleScenario.node[37].nic.mac1609_4 	totalBusyTime 	0.002305012212
scalar RSUExampleScenario.node[37].veinsmobility 	startTime 	68
scalar RSUExampleScenario.node[37].veinsmobility 	totalTime 	689
scalar RSUExampleScenario.node[37].veinsmobility 	stopTime 	758
scalar RSUExampleScenario.node[37].veinsmobility 	minSpeed 	0
scalar RSUExampleScenario.node[37].veinsmobility 	maxSpeed 	16.658761146385
scalar RSUExampleScenario.node[37].veinsmobility 	totalDistance 	3254.063040527
scalar RSUExampleScenario.node[37].veinsmobility 	totalCO2Emission 	1277.1466293125
scalar RSUExampleScenario.node[40].nic.phy80211p 	busyTime 	4.0583090379009e-06
scalar RSUExampleScenario.node[40].nic.mac1609_4 	ReceivedUnicastPackets 	0
scalar RSUExampleScenario.node[40].nic.mac1609_4 	ReceivedBroadcasts 	21
scalar RSUExampleScenario.node[40].nic.mac1609_4 	SentPackets 	1
scalar RSUExampleScenario.node[40].nic.mac1609_4 	SNIRLostPackets 	8
scalar RSUExampleScenario.node[40].nic.mac1609_4 	RXTXLostPackets 	0
scalar RSUExampleScenario.node[40].nic.mac1609_4 	TotalLostPackets 	8
scalar RSUExampleScenario.node[40].nic.mac1609_4 	DroppedPacketsInMac 	0
scalar RSUExampleScenario.node[40].nic.mac1609_4 	TooLittleTime 	0
scalar RSUExampleScenario.node[40].nic.mac1609_4 	TimesIntoBackoff 	2
scalar RSUExampleScenario.node[40].nic.mac1609_4 	SlotsBackoff 	12
scalar RSUExampleScenario.node[40].nic.mac1609_4 	NumInternalContention 	0
scalar RSUExampleScenario.node[40].nic.mac1609_4 	totalBusyTime 	0.002401054914
scalar RSUExampleScenario.node[40].veinsmobility 	startTime 	74
scalar RSUExampleScenario.node[40].veinsmobility 	totalTime 	685
scalar RSUExampleScenario.node[40].veinsmobility 	stopTime 	760
scalar RSUExampleScenario.node[40].veinsmobility 	minSpeed 	0
scalar RSUExampleScenario.node[40].veinsmobility 	maxSpeed 	16.665507103652
scalar RSUExampleScenario.node[40].veinsmobility 	totalDistance 	3250.7288934491
scalar RSUExampleScenario.node[40].veinsmobility 	totalCO2Emission 	1255.0561541326
scalar RSUExampleScenario.node[42].nic.phy80211p 	busyTime 	3.7839416058394e-06
scalar RSUExampleScenario.node[42].nic.mac1609_4 	ReceivedUnicastPackets 	0
scalar RSUExampleScenario.node[42].nic.mac1609_4 	ReceivedBroadcasts 	23
scalar RSUExampleScenario.node[42].nic.mac1609_4 	SentPackets 	1
scalar RSUExampleScenario.node[42].nic.mac1609_4 	SNIRLostPackets 	4
scalar RSUExampleScenario.node[42].nic.mac1609_4 	RXTXLostPackets 	3
scalar RSUExampleScenario.node[42].nic.mac1609_4 	TotalLostPackets 	7
scalar RSUExampleScenario.node[42].nic.mac1609_4 	DroppedPacketsInMac 	0
scalar RSUExampleScenario.node[42].nic.mac1609_4 	TooLittleTime 	0
scalar RSUExampleScenario.node[42].nic.mac1609_4 	TimesIntoBackoff 	1
scalar RSUExampleScenario.node[42].nic.mac1609_4 	SlotsBackoff 	6
scalar RSUExampleScenario.node[42].nic.mac1609_4 	NumInternalContention 	0
scalar RSUExampleScenario.node[42].nic.mac1609_4 	totalBusyTime 	0.002497112617
scalar RSUExampleScenario.node[42].veinsmobility 	startTime 	78
scalar RSUExampleScenario.node[42].veinsmobility 	totalTime 	684
scalar RSUExampleScenario.node[42].veinsmobility 	stopTime 	763
scalar RSUExampleScenario.node[42].veinsmobility 	minSpeed 	0
scalar RSUExampleScenario.node[42].veinsmobility 	maxSpeed 	16.663966714526
scalar RSUExampleScenario.node[42].veinsmobility 	totalDistance 	3258.5171161734
scalar RSUExampleScenario.node[42].veinsmobility 	totalCO2Emission 	1286.6772168703
scalar RSUExampleScenario.node[36].nic.phy80211p 	busyTime 	3.7081545064378e-06
scalar RSUExampleScenario.node[36].nic.mac1609_4 	ReceivedUnicastPackets 	0
scalar RSUExampleScenario.node[36].nic.mac1609_4 	ReceivedBroadcasts 	21
scalar RSUExampleScenario.node[36].nic.mac1609_4 	SentPackets 	1
scalar RSUExampleScenario.node[36].nic.mac1609_4 	SNIRLostPackets 	6
scalar RSUExampleScenario.node[36].nic.mac1609_4 	RXTXLostPackets 	0
scalar RSUExampleScenario.node[36].nic.mac1609_4 	TotalLostPackets 	6
scalar RSUExampleScenario.node[36].nic.mac1609_4 	DroppedPacketsInMac 	0
scalar RSUExampleScenario.node[36].nic.mac1609_4 	TooLittleTime 	0
scalar RSUExampleScenario.node[36].nic.mac1609_4 	TimesIntoBackoff 	1
scalar RSUExampleScenario.node[36].nic.mac1609_4 	SlotsBackoff 	3
scalar RSUExampleScenario.node[36].nic.mac1609_4 	NumInternalContention 	0
scalar RSUExampleScenario.node[36].nic.mac1609_4 	totalBusyTime 	0.002305016336
scalar RSUExampleScenario.node[36].veinsmobility 	startTime 	66
scalar RSUExampleScenario.node[36].veinsmobility 	totalTime 	698
scalar RSUExampleScenario.node[36].veinsmobility 	stopTime 	765
scalar RSUExampleScenario.node[36].veinsmobility 	minSpeed 	0
scalar RSUExampleScenario.node[36].veinsmobility 	maxSpeed 	16.649888872225
scalar RSUExampleScenario.node[36].veinsmobility 	totalDistance 	3252.7555096756
scalar RSUExampleScenario.node[36].veinsmobility 	totalCO2Emission 	1259.429193019
scalar RSUExampleScenario.node[41].nic.phy80211p 	busyTime 	4.0289435600579e-06
scalar RSUExampleScenario.node[41].nic.mac1609_4 	ReceivedUnicastPackets 	0
scalar RSUExampleScenario.node[41].nic.mac1609_4 	ReceivedBroadcasts 	23
scalar RSUExampleScenario.node[41].nic.mac1609_4 	SentPackets 	1
scalar RSUExampleScenario.node[41].nic.mac1609_4 	SNIRLostPackets 	6
scalar RSUExampleScenario.node[41].nic.mac1609_4 	RXTXLostPackets 	1
scalar RSUExampleScenario.node[41].nic.mac1609_4 	TotalLostPackets 	7
scalar RSUExampleScenario.node[41].nic.mac1609_4 	DroppedPacketsInMac 	0
scalar RSUExampleScenario.node[41].nic.mac1609_4 	TooLittleTime 	0
scalar RSUExampleScenario.node[41].nic.mac1609_4 	TimesIntoBackoff 	2
scalar RSUExampleScenario.node[41].nic.mac1609_4 	SlotsBackoff 	10
scalar RSUExampleScenario.node[41].nic.mac1609_4 	NumInternalContention 	0
scalar RSUExampleScenario.node[41].nic.mac1609_4 	totalBusyTime 	0.002497114252
scalar RSUExampleScenario.node[41].veinsmobility 	startTime 	76
scalar RSUExampleScenario.node[41].veinsmobility 	totalTime 	690
scalar RSUExampleScenario.node[41].veinsmobility 	stopTime 	767
scalar RSUExampleScenario.node[41].veinsmobility 	minSpeed 	0
scalar RSUExampleScenario.node[41].veinsmobility 	maxSpeed 	16.658141360329
scalar RSUExampleScenario.node[41].veinsmobility 	totalDistance 	3252.8222871155
scalar RSUExampleScenario.node[41].veinsmobility 	totalCO2Emission 	1254.7847284865
scalar RSUExampleScenario.node[99].nic.phy80211p 	busyTime 	6.331550802139e-06
scalar RSUExampleScenario.node[99].nic.mac1609_4 	ReceivedUnicastPackets 	0
scalar RSUExampleScenario.node[99].nic.mac1609_4 	ReceivedBroadcasts 	26
scalar RSUExampleScenario.node[99].nic.mac1609_4 	SentPackets 	1
scalar RSUExampleScenario.node[99].nic.mac1609_4 	SNIRLostPackets 	11
scalar RSUExampleScenario.node[99].nic.mac1609_4 	RXTXLostPackets 	0
scalar RSUExampleScenario.node[99].nic.mac1609_4 	TotalLostPackets 	11
scalar RSUExampleScenario.node[99].nic.mac1609_4 	DroppedPacketsInMac 	0
scalar RSUExampleScenario.node[99].nic.mac1609_4 	TooLittleTime 	0
scalar RSUExampleScenario.node[99].nic.mac1609_4 	TimesIntoBackoff 	2
scalar RSUExampleScenario.node[99].nic.mac1609_4 	SlotsBackoff 	3
scalar RSUExampleScenario.node[99].nic.mac1609_4 	NumInternalContention 	0
scalar RSUExampleScenario.node[99].nic.mac1609_4 	totalBusyTime 	0.002977146209
scalar RSUExampleScenario.node[99].veinsmobility 	startTime 	210
scalar RSUExampleScenario.node[99].veinsmobility 	totalTime 	560
scalar RSUExampleScenario.node[99].veinsmobility 	stopTime 	771
scalar RSUExampleScenario.node[99].veinsmobility 	minSpeed 	0
scalar RSUExampleScenario.node[99].veinsmobility 	maxSpeed 	27.776521383757
scalar RSUExampleScenario.node[99].veinsmobility 	totalDistance 	3402.1845633609
scalar RSUExampleScenario.node[99].veinsmobility 	totalCO2Emission 	1172.7849817458
scalar RSUExampleScenario.node[38].nic.phy80211p 	busyTime 	3.6818181818182e-06
scalar RSUExampleScenario.node[38].nic.mac1609_4 	ReceivedUnicastPackets 	0
scalar RSUExampleScenario.node[38].nic.mac1609_4 	ReceivedBroadcasts 	21
scalar RSUExampleScenario.node[38].nic.mac1609_4 	SentPackets 	1
scalar RSUExampleScenario.node[38].nic.mac1609_4 	SNIRLostPackets 	6
scalar RSUExampleScenario.node[38].nic.mac1609_4 	RXTXLostPackets 	0
scalar RSUExampleScenario.node[38].nic.mac1609_4 	TotalLostPackets 	6
scalar RSUExampleScenario.node[38].nic.mac1609_4 	DroppedPacketsInMac 	0
scalar RSUExampleScenario.node[38].nic.mac1609_4 	TooLittleTime 	0
scalar RSUExampleScenario.node[38].nic.mac1609_4 	TimesIntoBackoff 	1
scalar RSUExampleScenario.node[38].nic.mac1609_4 	SlotsBackoff 	4
scalar RSUExampleScenario.node[38].nic.mac1609_4 	NumInternalContention 	0
scalar RSUExampleScenario.node[38].nic.mac1609_4 	totalBusyTime 	0.002305004338
scalar RSUExampleScenario.node[38].veinsmobility 	startTime 	70
scalar RSUExampleScenario.node[38].veinsmobility 	totalTime 	703
scalar RSUExampleScenario.node[38].veinsmobility 	stopTime 	774
scalar RSUExampleScenario.node[38].veinsmobility 	minSpeed 	0
scalar RSUExampleScenario.node[38].veinsmobility 	maxSpeed 	16.667143343277
scalar RSUExampleScenario.node[38].veinsmobility 	totalDistance 	3255.9997170417
scalar RSUExampleScenario.node[38].veinsmobility 	totalCO2Emission 	1259.1443234563
scalar RSUExampleScenario.node[96].nic.phy80211p 	busyTime 	5.6864111498258e-06
scalar RSUExampleScenario.node[96].nic.mac1609_4 	ReceivedUnicastPackets 	0
scalar RSUExampleScenario.node[96].nic.mac1609_4 	ReceivedBroadcasts 	24
scalar RSUExampleScenario.node[96].nic.mac1609_4 	SentPackets 	1
scalar RSUExampleScenario.node[96].nic.mac1609_4 	SNIRLostPackets 	10
scalar RSUExampleScenario.node[96].nic.mac1609_4 	RXTXLostPackets 	1
scalar RSUExampleScenario.node[96].nic.mac1609_4 	TotalLostPackets 	11
scalar RSUExampleScenario.node[96].nic.mac1609_4 	DroppedPacketsInMac 	0
scalar RSUExampleScenario.node[96].nic.mac1609_4 	TooLittleTime 	0
scalar RSUExampleScenario.node[96].nic.mac1609_4 	TimesIntoBackoff 	1
scalar RSUExampleScenario.node[96].nic.mac1609_4 	SlotsBackoff 	3
scalar RSUExampleScenario.node[96].nic.mac1609_4 	NumInternalContention 	0
scalar RSUExampleScenario.node[96].nic.mac1609_4 	totalBusyTime 	0.002785
scalar RSUExampleScenario.node[96].veinsmobility 	startTime 	203
scalar RSUExampleScenario.node[96].veinsmobility 	totalTime 	573
scalar RSUExampleScenario.node[96].veinsmobility 	stopTime 	777
scalar RSUExampleScenario.node[96].veinsmobility 	minSpeed 	0
scalar RSUExampleScenario.node[96].veinsmobility 	maxSpeed 	27.739300411828
scalar RSUExampleScenario.node[96].veinsmobility 	totalDistance 	3405.0555353021
scalar RSUExampleScenario.node[96].veinsmobility 	totalCO2Emission 	1219.180985928
scalar RSUExampleScenario.node[102].nic.phy80211p 	busyTime 	6.6500888099467e-06
scalar RSUExampleScenario.node[102].nic.mac1609_4 	ReceivedUnicastPackets 	0
scalar RSUExampleScenario.node[102].nic.mac1609_4 	ReceivedBroadcasts 	26
scalar RSUExampleScenario.node[102].nic.mac1609_4 	SentPackets 	1
scalar RSUExampleScenario.node[102].nic.mac1609_4 	SNIRLostPackets 	13
scalar RSUExampleScenario.node[102].nic.mac1609_4 	RXTXLostPackets 	0
scalar RSUExampleScenario.node[102].nic.mac1609_4 	TotalLostPackets 	13
scalar RSUExampleScenario.node[102].nic.mac1609_4 	DroppedPacketsInMac 	0
scalar RSUExampleScenario.node[102].nic.mac1609_4 	TooLittleTime 	0
scalar RSUExampleScenario.node[102].nic.mac1609_4 	TimesIntoBackoff 	1
scalar RSUExampleScenario.node[102].nic.mac1609_4 	SlotsBackoff 	2
scalar RSUExampleScenario.node[102].nic.mac1609_4 	NumInternalContention 	0
scalar RSUExampleScenario.node[102].nic.mac1609_4 	totalBusyTime 	0.003073181408
scalar RSUExampleScenario.node[102].veinsmobility 	startTime 	217
scalar RSUExampleScenario.node[102].veinsmobility 	totalTime 	562
scalar RSUExampleScenario.node[102].veinsmobility 	stopTime 	780
scalar RSUExampleScenario.node[102].veinsmobility 	minSpeed 	0
scalar RSUExampleScenario.node[102].veinsmobility 	maxSpeed 	27.777747820581
scalar RSUExampleScenario.node[102].veinsmobility 	totalDistance 	3405.2745078549
scalar RSUExampleScenario.node[102].veinsmobility 	totalCO2Emission 	1125.2807352164
scalar RSUExampleScenario.node[98].nic.phy80211p 	busyTime 	6.0104347826087e-06
scalar RSUExampleScenario.node[98].nic.mac1609_4 	ReceivedUnicastPackets 	0
scalar RSUExampleScenario.node[98].nic.mac1609_4 	ReceivedBroadcasts 	26
scalar RSUExampleScenario.node[98].nic.mac1609_4 	SentPackets 	1
scalar RSUExampleScenario.node[98].nic.mac1609_4 	SNIRLostPackets 	10
scalar RSUExampleScenario.node[98].nic.mac1609_4 	RXTXLostPackets 	1
scalar RSUExampleScenario.node[98].nic.mac1609_4 	TotalLostPackets 	11
scalar RSUExampleScenario.node[98].nic.mac1609_4 	DroppedPacketsInMac 	0
scalar RSUExampleScenario.node[98].nic.mac1609_4 	TooLittleTime 	0
scalar RSUExampleScenario.node[98].nic.mac1609_4 	TimesIntoBackoff 	1
scalar RSUExampleScenario.node[98].nic.mac1609_4 	SlotsBackoff 	0
scalar RSUExampleScenario.node[98].nic.mac1609_4 	NumInternalContention 	0
scalar RSUExampleScenario.node[98].nic.mac1609_4 	totalBusyTime 	0.002977075361
scalar RSUExampleScenario.node[98].veinsmobility 	startTime 	208
scalar RSUExampleScenario.node[98].veinsmobility 	totalTime 	574
scalar RSUExampleScenario.node[98].veinsmobility 	stopTime 	783
scalar RSUExampleScenario.node[98].veinsmobility 	minSpeed 	0
scalar RSUExampleScenario.node[98].veinsmobility 	maxSpeed 	27.772327998139
scalar RSUExampleScenario.node[98].veinsmobility 	totalDistance 	3397.3699967601
scalar RSUExampleScenario.node[98].veinsmobility 	totalCO2Emission 	1193.2768573756
scalar RSUExampleScenario.node[76].nic.phy80211p 	busyTime 	6.5627980922099e-06
scalar RSUExampleScenario.node[76].nic.mac1609_4 	ReceivedUnicastPackets 	0
scalar RSUExampleScenario.node[76].nic.mac1609_4 	ReceivedBroadcasts 	33
scalar RSUExampleScenario.node[76].nic.mac1609_4 	SentPackets 	1
scalar RSUExampleScenario.node[76].nic.mac1609_4 	SNIRLostPackets 	10
scalar RSUExampleScenario.node[76].nic.mac1609_4 	RXTXLostPackets 	0
scalar RSUExampleScenario.node[76].nic.mac1609_4 	TotalLostPackets 	10
scalar RSUExampleScenario.node[76].nic.mac1609_4 	DroppedPacketsInMac 	0
scalar RSUExampleScenario.node[76].nic.mac1609_4 	TooLittleTime 	0
scalar RSUExampleScenario.node[76].nic.mac1609_4 	TimesIntoBackoff 	2
scalar RSUExampleScenario.node[76].nic.mac1609_4 	SlotsBackoff 	6
scalar RSUExampleScenario.node[76].nic.mac1609_4 	NumInternalContention 	0
scalar RSUExampleScenario.node[76].nic.mac1609_4 	totalBusyTime 	0.003833933512
scalar RSUExampleScenario.node[76].veinsmobility 	startTime 	156
scalar RSUExampleScenario.node[76].veinsmobility 	totalTime 	628
scalar RSUExampleScenario.node[76].veinsmobility 	stopTime 	785
scalar RSUExampleScenario.node[76].veinsmobility 	minSpeed 	0
scalar RSUExampleScenario.node[76].veinsmobility 	maxSpeed 	27.761848294418
scalar RSUExampleScenario.node[76].veinsmobility 	totalDistance 	3403.5149833203
scalar RSUExampleScenario.node[76].veinsmobility 	totalCO2Emission 	1419.207110792
[...]
scalar RSUExampleScenario.node[224].veinsmobility 	totalDistance 	3398.5338729293
scalar RSUExampleScenario.node[224].veinsmobility 	totalCO2Emission 	1210.8105506211
scalar RSUExampleScenario.node[202].nic.phy80211p 	busyTime 	5.0526315789474e-06
scalar RSUExampleScenario.node[202].nic.mac1609_4 	ReceivedUnicastPackets 	0
scalar RSUExampleScenario.node[202].nic.mac1609_4 	ReceivedBroadcasts 	26
scalar RSUExampleScenario.node[202].nic.mac1609_4 	SentPackets 	1
scalar RSUExampleScenario.node[202].nic.mac1609_4 	SNIRLostPackets 	15
scalar RSUExampleScenario.node[202].nic.mac1609_4 	RXTXLostPackets 	0
scalar RSUExampleScenario.node[202].nic.mac1609_4 	TotalLostPackets 	15
scalar RSUExampleScenario.node[202].nic.mac1609_4 	DroppedPacketsInMac 	0
scalar RSUExampleScenario.node[202].nic.mac1609_4 	TooLittleTime 	0
scalar RSUExampleScenario.node[202].nic.mac1609_4 	TimesIntoBackoff 	1
scalar RSUExampleScenario.node[202].nic.mac1609_4 	SlotsBackoff 	0
scalar RSUExampleScenario.node[202].nic.mac1609_4 	NumInternalContention 	0
scalar RSUExampleScenario.node[202].nic.mac1609_4 	totalBusyTime 	0.003169000039
scalar RSUExampleScenario.node[202].veinsmobility 	startTime 	564
scalar RSUExampleScenario.node[202].veinsmobility 	totalTime 	778
scalar RSUExampleScenario.node[202].veinsmobility 	stopTime 	1343
scalar RSUExampleScenario.node[202].veinsmobility 	minSpeed 	0
scalar RSUExampleScenario.node[202].veinsmobility 	maxSpeed 	16.667400399203
scalar RSUExampleScenario.node[202].veinsmobility 	totalDistance 	3258.7397125893
scalar RSUExampleScenario.node[202].veinsmobility 	totalCO2Emission 	1197.6363341121
scalar RSUExampleScenario.node[203].nic.phy80211p 	busyTime 	5.2923076923077e-06
scalar RSUExampleScenario.node[203].nic.mac1609_4 	ReceivedUnicastPackets 	0
scalar RSUExampleScenario.node[203].nic.mac1609_4 	ReceivedBroadcasts 	28
scalar RSUExampleScenario.node[203].nic.mac1609_4 	SentPackets 	1
scalar RSUExampleScenario.node[203].nic.mac1609_4 	SNIRLostPackets 	15
scalar RSUExampleScenario.node[203].nic.mac1609_4 	RXTXLostPackets 	1
scalar RSUExampleScenario.node[203].nic.mac1609_4 	TotalLostPackets 	16
scalar RSUExampleScenario.node[203].nic.mac1609_4 	DroppedPacketsInMac 	0
scalar RSUExampleScenario.node[203].nic.mac1609_4 	TooLittleTime 	0
scalar RSUExampleScenario.node[203].nic.mac1609_4 	TimesIntoBackoff 	2
scalar RSUExampleScenario.node[203].nic.mac1609_4 	SlotsBackoff 	9
scalar RSUExampleScenario.node[203].nic.mac1609_4 	NumInternalContention 	0
scalar RSUExampleScenario.node[203].nic.mac1609_4 	totalBusyTime 	0.003265
scalar RSUExampleScenario.node[203].veinsmobility 	startTime 	566
scalar RSUExampleScenario.node[203].veinsmobility 	totalTime 	779
scalar RSUExampleScenario.node[203].veinsmobility 	stopTime 	1346
scalar RSUExampleScenario.node[203].veinsmobility 	minSpeed 	0
scalar RSUExampleScenario.node[203].veinsmobility 	maxSpeed 	16.664185023973
scalar RSUExampleScenario.node[203].veinsmobility 	totalDistance 	3255.7133758074
scalar RSUExampleScenario.node[203].veinsmobility 	totalCO2Emission 	1185.4692935357
scalar RSUExampleScenario.node[204].nic.phy80211p 	busyTime 	5.4084507042254e-06
scalar RSUExampleScenario.node[204].nic.mac1609_4 	ReceivedUnicastPackets 	0
scalar RSUExampleScenario.node[204].nic.mac1609_4 	ReceivedBroadcasts 	28
scalar RSUExampleScenario.node[204].nic.mac1609_4 	SentPackets 	1
scalar RSUExampleScenario.node[204].nic.mac1609_4 	SNIRLostPackets 	16
scalar RSUExampleScenario.node[204].nic.mac1609_4 	RXTXLostPackets 	1
scalar RSUExampleScenario.node[204].nic.mac1609_4 	TotalLostPackets 	17
scalar RSUExampleScenario.node[204].nic.mac1609_4 	DroppedPacketsInMac 	0
scalar RSUExampleScenario.node[204].nic.mac1609_4 	TooLittleTime 	0
scalar RSUExampleScenario.node[204].nic.mac1609_4 	TimesIntoBackoff 	2
scalar RSUExampleScenario.node[204].nic.mac1609_4 	SlotsBackoff 	8
scalar RSUExampleScenario.node[204].nic.mac1609_4 	NumInternalContention 	0
scalar RSUExampleScenario.node[204].nic.mac1609_4 	totalBusyTime 	0.003361059656
scalar RSUExampleScenario.node[204].veinsmobility 	startTime 	568
scalar RSUExampleScenario.node[204].veinsmobility 	totalTime 	780
scalar RSUExampleScenario.node[204].veinsmobility 	stopTime 	1349
scalar RSUExampleScenario.node[204].veinsmobility 	minSpeed 	0
scalar RSUExampleScenario.node[204].veinsmobility 	maxSpeed 	16.666788426033
scalar RSUExampleScenario.node[204].veinsmobility 	totalDistance 	3253.1478838345
scalar RSUExampleScenario.node[204].veinsmobility 	totalCO2Emission 	1180.8244136289
scalar RSUExampleScenario.node[205].nic.phy80211p 	busyTime 	5.5242966751918e-06
scalar RSUExampleScenario.node[205].nic.mac1609_4 	ReceivedUnicastPackets 	0
scalar RSUExampleScenario.node[205].nic.mac1609_4 	ReceivedBroadcasts 	28
scalar RSUExampleScenario.node[205].nic.mac1609_4 	SentPackets 	1
scalar RSUExampleScenario.node[205].nic.mac1609_4 	SNIRLostPackets 	17
scalar RSUExampleScenario.node[205].nic.mac1609_4 	RXTXLostPackets 	0
scalar RSUExampleScenario.node[205].nic.mac1609_4 	TotalLostPackets 	17
scalar RSUExampleScenario.node[205].nic.mac1609_4 	DroppedPacketsInMac 	0
scalar RSUExampleScenario.node[205].nic.mac1609_4 	TooLittleTime 	0
scalar RSUExampleScenario.node[205].nic.mac1609_4 	TimesIntoBackoff 	2
scalar RSUExampleScenario.node[205].nic.mac1609_4 	SlotsBackoff 	10
scalar RSUExampleScenario.node[205].nic.mac1609_4 	NumInternalContention 	0
scalar RSUExampleScenario.node[205].nic.mac1609_4 	totalBusyTime 	0.003361059655
scalar RSUExampleScenario.node[205].veinsmobility 	startTime 	570
scalar RSUExampleScenario.node[205].veinsmobility 	totalTime 	781
scalar RSUExampleScenario.node[205].veinsmobility 	stopTime 	1352
scalar RSUExampleScenario.node[205].veinsmobility 	minSpeed 	0
scalar RSUExampleScenario.node[205].veinsmobility 	maxSpeed 	16.665330375547
scalar RSUExampleScenario.node[205].veinsmobility 	totalDistance 	3252.4834026773
scalar RSUExampleScenario.node[205].veinsmobility 	totalCO2Emission 	1188.7687851955
scalar RSUExampleScenario.node[206].nic.phy80211p 	busyTime 	5.3877551020408e-06
scalar RSUExampleScenario.node[206].nic.mac1609_4 	ReceivedUnicastPackets 	0
scalar RSUExampleScenario.node[206].nic.mac1609_4 	ReceivedBroadcasts 	28
scalar RSUExampleScenario.node[206].nic.mac1609_4 	SentPackets 	1
scalar RSUExampleScenario.node[206].nic.mac1609_4 	SNIRLostPackets 	16
scalar RSUExampleScenario.node[206].nic.mac1609_4 	RXTXLostPackets 	1
scalar RSUExampleScenario.node[206].nic.mac1609_4 	TotalLostPackets 	17
scalar RSUExampleScenario.node[206].nic.mac1609_4 	DroppedPacketsInMac 	0
scalar RSUExampleScenario.node[206].nic.mac1609_4 	TooLittleTime 	0
scalar RSUExampleScenario.node[206].nic.mac1609_4 	TimesIntoBackoff 	2
scalar RSUExampleScenario.node[206].nic.mac1609_4 	SlotsBackoff 	2
scalar RSUExampleScenario.node[206].nic.mac1609_4 	NumInternalContention 	0
scalar RSUExampleScenario.node[206].nic.mac1609_4 	totalBusyTime 	0.003361059655
scalar RSUExampleScenario.node[206].veinsmobility 	startTime 	572
scalar RSUExampleScenario.node[206].veinsmobility 	totalTime 	783
scalar RSUExampleScenario.node[206].veinsmobility 	stopTime 	1356
scalar RSUExampleScenario.node[206].veinsmobility 	minSpeed 	0
scalar RSUExampleScenario.node[206].veinsmobility 	maxSpeed 	16.666770841682
scalar RSUExampleScenario.node[206].veinsmobility 	totalDistance 	3259.0779781401
scalar RSUExampleScenario.node[206].veinsmobility 	totalCO2Emission 	1214.0750875642
scalar RSUExampleScenario.node[207].nic.phy80211p 	busyTime 	5.5031847133758e-06
scalar RSUExampleScenario.node[207].nic.mac1609_4 	ReceivedUnicastPackets 	0
scalar RSUExampleScenario.node[207].nic.mac1609_4 	ReceivedBroadcasts 	28
scalar RSUExampleScenario.node[207].nic.mac1609_4 	SentPackets 	1
scalar RSUExampleScenario.node[207].nic.mac1609_4 	SNIRLostPackets 	17
scalar RSUExampleScenario.node[207].nic.mac1609_4 	RXTXLostPackets 	0
scalar RSUExampleScenario.node[207].nic.mac1609_4 	TotalLostPackets 	17
scalar RSUExampleScenario.node[207].nic.mac1609_4 	DroppedPacketsInMac 	0
scalar RSUExampleScenario.node[207].nic.mac1609_4 	TooLittleTime 	0
scalar RSUExampleScenario.node[207].nic.mac1609_4 	TimesIntoBackoff 	1
scalar RSUExampleScenario.node[207].nic.mac1609_4 	SlotsBackoff 	1
scalar RSUExampleScenario.node[207].nic.mac1609_4 	NumInternalContention 	0
scalar RSUExampleScenario.node[207].nic.mac1609_4 	totalBusyTime 	0.003361
scalar RSUExampleScenario.node[207].veinsmobility 	startTime 	574
scalar RSUExampleScenario.node[207].veinsmobility 	totalTime 	784
scalar RSUExampleScenario.node[207].veinsmobility 	stopTime 	1359
scalar RSUExampleScenario.node[207].veinsmobility 	minSpeed 	0
scalar RSUExampleScenario.node[207].veinsmobility 	maxSpeed 	16.669431561194
scalar RSUExampleScenario.node[207].veinsmobility 	totalDistance 	3255.0509835176
scalar RSUExampleScenario.node[207].veinsmobility 	totalCO2Emission 	1203.5892741514
scalar RSUExampleScenario.node[208].nic.phy80211p 	busyTime 	5.4961832061069e-06
scalar RSUExampleScenario.node[208].nic.mac1609_4 	ReceivedUnicastPackets 	0
scalar RSUExampleScenario.node[208].nic.mac1609_4 	ReceivedBroadcasts 	28
scalar RSUExampleScenario.node[208].nic.mac1609_4 	SentPackets 	1
scalar RSUExampleScenario.node[208].nic.mac1609_4 	SNIRLostPackets 	17
scalar RSUExampleScenario.node[208].nic.mac1609_4 	RXTXLostPackets 	0
scalar RSUExampleScenario.node[208].nic.mac1609_4 	TotalLostPackets 	17
scalar RSUExampleScenario.node[208].nic.mac1609_4 	DroppedPacketsInMac 	0
scalar RSUExampleScenario.node[208].nic.mac1609_4 	TooLittleTime 	0
scalar RSUExampleScenario.node[208].nic.mac1609_4 	TimesIntoBackoff 	1
scalar RSUExampleScenario.node[208].nic.mac1609_4 	SlotsBackoff 	6
scalar RSUExampleScenario.node[208].nic.mac1609_4 	NumInternalContention 	0
scalar RSUExampleScenario.node[208].nic.mac1609_4 	totalBusyTime 	0.003361
scalar RSUExampleScenario.node[208].veinsmobility 	startTime 	576
scalar RSUExampleScenario.node[208].veinsmobility 	totalTime 	785
scalar RSUExampleScenario.node[208].veinsmobility 	stopTime 	1362
scalar RSUExampleScenario.node[208].veinsmobility 	minSpeed 	0
scalar RSUExampleScenario.node[208].veinsmobility 	maxSpeed 	16.669967840016
scalar RSUExampleScenario.node[208].veinsmobility 	totalDistance 	3254.297937132
scalar RSUExampleScenario.node[208].veinsmobility 	totalCO2Emission 	1205.7010783634
scalar RSUExampleScenario.node[209].nic.phy80211p 	busyTime 	5.4822335025381e-06
scalar RSUExampleScenario.node[209].nic.mac1609_4 	ReceivedUnicastPackets 	0
scalar RSUExampleScenario.node[209].nic.mac1609_4 	ReceivedBroadcasts 	27
scalar RSUExampleScenario.node[209].nic.mac1609_4 	SentPackets 	1
scalar RSUExampleScenario.node[209].nic.mac1609_4 	SNIRLostPackets 	18
scalar RSUExampleScenario.node[209].nic.mac1609_4 	RXTXLostPackets 	0
scalar RSUExampleScenario.node[209].nic.mac1609_4 	TotalLostPackets 	18
scalar RSUExampleScenario.node[209].nic.mac1609_4 	DroppedPacketsInMac 	0
scalar RSUExampleScenario.node[209].nic.mac1609_4 	TooLittleTime 	0
scalar RSUExampleScenario.node[209].nic.mac1609_4 	TimesIntoBackoff 	2
scalar RSUExampleScenario.node[209].nic.mac1609_4 	SlotsBackoff 	11
scalar RSUExampleScenario.node[209].nic.mac1609_4 	NumInternalContention 	0
scalar RSUExampleScenario.node[209].nic.mac1609_4 	totalBusyTime 	0.00336106053
scalar RSUExampleScenario.node[209].veinsmobility 	startTime 	578
scalar RSUExampleScenario.node[209].veinsmobility 	totalTime 	787
scalar RSUExampleScenario.node[209].veinsmobility 	stopTime 	1366
scalar RSUExampleScenario.node[209].veinsmobility 	minSpeed 	0
scalar RSUExampleScenario.node[209].veinsmobility 	maxSpeed 	16.655561099523
scalar RSUExampleScenario.node[209].veinsmobility 	totalDistance 	3257.1109936057
scalar RSUExampleScenario.node[209].veinsmobility 	totalCO2Emission 	1225.8964300196
scalar RSUExampleScenario.node[210].nic.phy80211p 	busyTime 	5.1102661596958e-06
scalar RSUExampleScenario.node[210].nic.mac1609_4 	ReceivedUnicastPackets 	0
scalar RSUExampleScenario.node[210].nic.mac1609_4 	ReceivedBroadcasts 	28
scalar RSUExampleScenario.node[210].nic.mac1609_4 	SentPackets 	1
scalar RSUExampleScenario.node[210].nic.mac1609_4 	SNIRLostPackets 	14
scalar RSUExampleScenario.node[210].nic.mac1609_4 	RXTXLostPackets 	3
scalar RSUExampleScenario.node[210].nic.mac1609_4 	TotalLostPackets 	17
scalar RSUExampleScenario.node[210].nic.mac1609_4 	DroppedPacketsInMac 	0
scalar RSUExampleScenario.node[210].nic.mac1609_4 	TooLittleTime 	0
scalar RSUExampleScenario.node[210].nic.mac1609_4 	TimesIntoBackoff 	1
scalar RSUExampleScenario.node[210].nic.mac1609_4 	SlotsBackoff 	7
scalar RSUExampleScenario.node[210].nic.mac1609_4 	NumInternalContention 	0
scalar RSUExampleScenario.node[210].nic.mac1609_4 	totalBusyTime 	0.003361217362
scalar RSUExampleScenario.node[210].veinsmobility 	startTime 	580
scalar RSUExampleScenario.node[210].veinsmobility 	totalTime 	788
scalar RSUExampleScenario.node[210].veinsmobility 	stopTime 	1369
scalar RSUExampleScenario.node[210].veinsmobility 	minSpeed 	0
scalar RSUExampleScenario.node[210].veinsmobility 	maxSpeed 	16.668026889109
scalar RSUExampleScenario.node[210].veinsmobility 	totalDistance 	3255.1546579239
scalar RSUExampleScenario.node[210].veinsmobility 	totalCO2Emission 	1217.6460069215
scalar RSUExampleScenario.node[211].nic.phy80211p 	busyTime 	5.3536121673004e-06
scalar RSUExampleScenario.node[211].nic.mac1609_4 	ReceivedUnicastPackets 	0
scalar RSUExampleScenario.node[211].nic.mac1609_4 	ReceivedBroadcasts 	28
scalar RSUExampleScenario.node[211].nic.mac1609_4 	SentPackets 	1
scalar RSUExampleScenario.node[211].nic.mac1609_4 	SNIRLostPackets 	16
scalar RSUExampleScenario.node[211].nic.mac1609_4 	RXTXLostPackets 	1
scalar RSUExampleScenario.node[211].nic.mac1609_4 	TotalLostPackets 	17
scalar RSUExampleScenario.node[211].nic.mac1609_4 	DroppedPacketsInMac 	0
scalar RSUExampleScenario.node[211].nic.mac1609_4 	TooLittleTime 	0
scalar RSUExampleScenario.node[211].nic.mac1609_4 	TimesIntoBackoff 	2
scalar RSUExampleScenario.node[211].nic.mac1609_4 	SlotsBackoff 	13
scalar RSUExampleScenario.node[211].nic.mac1609_4 	NumInternalContention 	0
scalar RSUExampleScenario.node[211].nic.mac1609_4 	totalBusyTime 	0.003361155407
scalar RSUExampleScenario.node[211].veinsmobility 	startTime 	583
scalar RSUExampleScenario.node[211].veinsmobility 	totalTime 	788
scalar RSUExampleScenario.node[211].veinsmobility 	stopTime 	1372
scalar RSUExampleScenario.node[211].veinsmobility 	minSpeed 	0
scalar RSUExampleScenario.node[211].veinsmobility 	maxSpeed 	16.657877598513
scalar RSUExampleScenario.node[211].veinsmobility 	totalDistance 	3255.5704336727
scalar RSUExampleScenario.node[211].veinsmobility 	totalCO2Emission 	1216.5116970002
scalar RSUExampleScenario.node[212].nic.phy80211p 	busyTime 	5.346835443038e-06
scalar RSUExampleScenario.node[212].nic.mac1609_4 	ReceivedUnicastPackets 	0
scalar RSUExampleScenario.node[212].nic.mac1609_4 	ReceivedBroadcasts 	28
scalar RSUExampleScenario.node[212].nic.mac1609_4 	SentPackets 	1
scalar RSUExampleScenario.node[212].nic.mac1609_4 	SNIRLostPackets 	16
scalar RSUExampleScenario.node[212].nic.mac1609_4 	RXTXLostPackets 	1
scalar RSUExampleScenario.node[212].nic.mac1609_4 	TotalLostPackets 	17
scalar RSUExampleScenario.node[212].nic.mac1609_4 	DroppedPacketsInMac 	0
scalar RSUExampleScenario.node[212].nic.mac1609_4 	TooLittleTime 	0
scalar RSUExampleScenario.node[212].nic.mac1609_4 	TimesIntoBackoff 	1
scalar RSUExampleScenario.node[212].nic.mac1609_4 	SlotsBackoff 	5
scalar RSUExampleScenario.node[212].nic.mac1609_4 	NumInternalContention 	0
scalar RSUExampleScenario.node[212].nic.mac1609_4 	totalBusyTime 	0.00336103533
scalar RSUExampleScenario.node[212].veinsmobility 	startTime 	585
scalar RSUExampleScenario.node[212].veinsmobility 	totalTime 	789
scalar RSUExampleScenario.node[212].veinsmobility 	stopTime 	1375
scalar RSUExampleScenario.node[212].veinsmobility 	minSpeed 	0
scalar RSUExampleScenario.node[212].veinsmobility 	maxSpeed 	16.669766470314
scalar RSUExampleScenario.node[212].veinsmobility 	totalDistance 	3251.860461617
scalar RSUExampleScenario.node[212].veinsmobility 	totalCO2Emission 	1212.6468282205
scalar RSUExampleScenario.node[213].nic.phy80211p 	busyTime 	5.4614412136536e-06
scalar RSUExampleScenario.node[213].nic.mac1609_4 	ReceivedUnicastPackets 	0
scalar RSUExampleScenario.node[213].nic.mac1609_4 	ReceivedBroadcasts 	28
scalar RSUExampleScenario.node[213].nic.mac1609_4 	SentPackets 	1
scalar RSUExampleScenario.node[213].nic.mac1609_4 	SNIRLostPackets 	17
scalar RSUExampleScenario.node[213].nic.mac1609_4 	RXTXLostPackets 	0
scalar RSUExampleScenario.node[213].nic.mac1609_4 	TotalLostPackets 	17
scalar RSUExampleScenario.node[213].nic.mac1609_4 	DroppedPacketsInMac 	0
scalar RSUExampleScenario.node[213].nic.mac1609_4 	TooLittleTime 	0
scalar RSUExampleScenario.node[213].nic.mac1609_4 	TimesIntoBackoff 	2
scalar RSUExampleScenario.node[213].nic.mac1609_4 	SlotsBackoff 	1
scalar RSUExampleScenario.node[213].nic.mac1609_4 	NumInternalContention 	0
scalar RSUExampleScenario.node[213].nic.mac1609_4 	totalBusyTime 	0.003361000135
scalar RSUExampleScenario.node[213].veinsmobility 	startTime 	587
scalar RSUExampleScenario.node[213].veinsmobility 	totalTime 	790
scalar RSUExampleScenario.node[213].veinsmobility 	stopTime 	1378
scalar RSUExampleScenario.node[213].veinsmobility 	minSpeed 	0
scalar RSUExampleScenario.node[213].veinsmobility 	maxSpeed 	16.669617328828
scalar RSUExampleScenario.node[213].veinsmobility 	totalDistance 	3251.0329643869
scalar RSUExampleScenario.node[213].veinsmobility 	totalCO2Emission 	1201.8388939765
scalar RSUExampleScenario.node[214].nic.phy80211p 	busyTime 	5.0844892812106e-06
scalar RSUExampleScenario.node[214].nic.mac1609_4 	ReceivedUnicastPackets 	0
scalar RSUExampleScenario.node[214].nic.mac1609_4 	ReceivedBroadcasts 	28
scalar RSUExampleScenario.node[214].nic.mac1609_4 	SentPackets 	1
scalar RSUExampleScenario.node[214].nic.mac1609_4 	SNIRLostPackets 	14
scalar RSUExampleScenario.node[214].nic.mac1609_4 	RXTXLostPackets 	3
scalar RSUExampleScenario.node[214].nic.mac1609_4 	TotalLostPackets 	17
scalar RSUExampleScenario.node[214].nic.mac1609_4 	DroppedPacketsInMac 	0
scalar RSUExampleScenario.node[214].nic.mac1609_4 	TooLittleTime 	0
scalar RSUExampleScenario.node[214].nic.mac1609_4 	TimesIntoBackoff 	1
scalar RSUExampleScenario.node[214].nic.mac1609_4 	SlotsBackoff 	3
scalar RSUExampleScenario.node[214].nic.mac1609_4 	NumInternalContention 	0
scalar RSUExampleScenario.node[214].nic.mac1609_4 	totalBusyTime 	0.003361000621
scalar RSUExampleScenario.node[214].veinsmobility 	startTime 	589
scalar RSUExampleScenario.node[214].veinsmobility 	totalTime 	792
scalar RSUExampleScenario.node[214].veinsmobility 	stopTime 	1382
scalar RSUExampleScenario.node[214].veinsmobility 	minSpeed 	0
scalar RSUExampleScenario.node[214].veinsmobility 	maxSpeed 	16.669980681079
scalar RSUExampleScenario.node[214].veinsmobility 	totalDistance 	3257.5709095157
scalar RSUExampleScenario.node[214].veinsmobility 	totalCO2Emission 	1229.3741756675
scalar RSUExampleScenario.rsu[0].nic.phy80211p 	busyTime 	4.416e-07
scalar RSUExampleScenario.rsu[0].nic.mac1609_4 	ReceivedUnicastPackets 	0
scalar RSUExampleScenario.rsu[0].nic.mac1609_4 	ReceivedBroadcasts 	24
scalar RSUExampleScenario.rsu[0].nic.mac1609_4 	SentPackets 	1
scalar RSUExampleScenario.rsu[0].nic.mac1609_4 	SNIRLostPackets 	22
scalar RSUExampleScenario.rsu[0].nic.mac1609_4 	RXTXLostPackets 	0
scalar RSUExampleScenario.rsu[0].nic.mac1609_4 	TotalLostPackets 	22
scalar RSUExampleScenario.rsu[0].nic.mac1609_4 	DroppedPacketsInMac 	0
scalar RSUExampleScenario.rsu[0].nic.mac1609_4 	TooLittleTime 	0
scalar RSUExampleScenario.rsu[0].nic.mac1609_4 	TimesIntoBackoff 	2
scalar RSUExampleScenario.rsu[0].nic.mac1609_4 	SlotsBackoff 	9
scalar RSUExampleScenario.rsu[0].nic.mac1609_4 	NumInternalContention 	0
scalar RSUExampleScenario.rsu[0].nic.mac1609_4 	totalBusyTime 	0.003841
