version 2
run debug-0-20161220-12:33:03-4186
attr configname debug
attr datetime 20161220-12:33:03
attr experiment debug
attr inifile omnetpp.ini
attr iterationvars ""
attr iterationvars2 $repetition=0
attr measurement ""
attr network RSUExampleScenario
attr processid 4186
attr repetition 0
attr replication #0
attr resultdir results
attr runnumber 0
attr seedset 0
param **.coreDebug false
param **.debug false
param *.**.nic.mac1609_4.bitrate 27Mbps
param *.**.nic.mac1609_4.txPower 20mW
param *.**.nic.mac1609_4.useServiceChannel false
param *.**.nic.phy80211p.analogueModels "xmldoc(\"config.xml\")"
param *.**.nic.phy80211p.decider "xmldoc(\"config.xml\")"
param *.**.nic.phy80211p.sensitivity -89dBm
param *.**.nic.phy80211p.thermalNoise -110dBm
param *.**.nic.phy80211p.usePropagationDelay true
param *.**.nic.phy80211p.useThermalNoise true
param *.annotations.draw false
param *.connectionManager.alpha 2.0
param *.connectionManager.carrierFrequency "5.890e9 Hz"
param *.connectionManager.pMax 20mW
param *.connectionManager.sat -89dBm
param *.connectionManager.sendDirect true
param *.manager.autoShutdown true
param *.manager.host "\"localhost\""
param *.manager.launchConfig "xmldoc(\"erlangen.launchd.xml\")"
param *.manager.margin 25
param *.manager.moduleDisplayString "\"\""
param *.manager.moduleName "\"node\""
param *.manager.moduleType "\"org.car2x.veins.nodes.Car\""
param *.manager.port 9999
param *.manager.updateInterval 1s
param *.node[*].appl.beaconInterval 1s
param *.node[*].appl.beaconPriority 3
param *.node[*].appl.dataOnSch false
param *.node[*].appl.dataPriority 2
param *.node[*].appl.debug false
param *.node[*].appl.headerLength "256 bit"
param *.node[*].appl.maxOffset 0.005s
param *.node[*].appl.sendBeacons false
param *.node[*].appl.sendData true
param *.node[*].applType "\"TraCIDemo11p\""
param *.node[*].mobilityType "\"TraCIMobility\""
param *.node[*].mobilityType.debug true
param *.node[*].veinsmobility.accidentCount 5
param *.node[*].veinsmobility.accidentDuration 43s
param *.node[*].veinsmobility.accidentStart 85s
param *.node[*].veinsmobility.x 0
param *.node[*].veinsmobility.y 0
param *.node[*].veinsmobility.z 1.895
param *.node[*].veinsmobilityType "\"org.car2x.veins.modules.mobility.traci.TraCIMobility\""
param *.node[*].veinsmobilityType.debug true
param *.obstacles.debug false
param *.obstacles.obstacles "xmldoc(\"config.xml\", \"//AnalogueModel[@type='SimpleObstacleShadowing']/obstacles\")"
param *.playgroundSizeX 2500m
param *.playgroundSizeY 2500m
param *.playgroundSizeZ 50m
param *.rsu[*].appl.beaconInterval 1s
param *.rsu[*].appl.beaconPriority 3
param *.rsu[*].appl.dataOnSch false
param *.rsu[*].appl.dataPriority 2
param *.rsu[*].appl.debug false
param *.rsu[*].appl.headerLength "256 bit"
param *.rsu[*].appl.maxOffset 0.005s
param *.rsu[*].appl.sendBeacons false
param *.rsu[*].appl.sendData true
param *.rsu[*].applType "\"TraCIDemoRSU11p\""
param *.rsu[0].mobility.x 2000
param *.rsu[0].mobility.y 2000
param *.rsu[0].mobility.z 3
param *.world.use2D false
param *.world.useTorus false

scalar RSUExampleScenario.node[0].nic.phy80211p 	busyTime 	2.9179331306991e-07
scalar RSUExampleScenario.node[0].nic.mac1609_4 	ReceivedUnicastPackets 	0
scalar RSUExampleScenario.node[0].nic.mac1609_4 	ReceivedBroadcasts 	0
scalar RSUExampleScenario.node[0].nic.mac1609_4 	SentPackets 	1
scalar RSUExampleScenario.node[0].nic.mac1609_4 	SNIRLostPackets 	1
scalar RSUExampleScenario.node[0].nic.mac1609_4 	RXTXLostPackets 	0
scalar RSUExampleScenario.node[0].nic.mac1609_4 	TotalLostPackets 	1
scalar RSUExampleScenario.node[0].nic.mac1609_4 	DroppedPacketsInMac 	0
scalar RSUExampleScenario.node[0].nic.mac1609_4 	TooLittleTime 	0
scalar RSUExampleScenario.node[0].nic.mac1609_4 	TimesIntoBackoff 	1
scalar RSUExampleScenario.node[0].nic.mac1609_4 	SlotsBackoff 	1
scalar RSUExampleScenario.node[0].nic.mac1609_4 	NumInternalContention 	0
scalar RSUExampleScenario.node[0].nic.mac1609_4 	totalBusyTime 	0.000193
scalar RSUExampleScenario.node[0].veinsmobility 	startTime 	1
scalar RSUExampleScenario.node[0].veinsmobility 	totalTime 	328
scalar RSUExampleScenario.node[0].veinsmobility 	stopTime 	330
scalar RSUExampleScenario.node[0].veinsmobility 	minSpeed 	0
scalar RSUExampleScenario.node[0].veinsmobility 	maxSpeed 	27.777907903148
scalar RSUExampleScenario.node[0].veinsmobility 	totalDistance 	3390.7022458854
scalar RSUExampleScenario.node[0].veinsmobility 	totalCO2Emission 	949.68164402234
scalar RSUExampleScenario.node[2].nic.phy80211p 	busyTime 	4.9230769230769e-06
scalar RSUExampleScenario.node[2].nic.mac1609_4 	ReceivedUnicastPackets 	0
scalar RSUExampleScenario.node[2].nic.mac1609_4 	ReceivedBroadcasts 	18
scalar RSUExampleScenario.node[2].nic.mac1609_4 	SentPackets 	1
scalar RSUExampleScenario.node[2].nic.mac1609_4 	SNIRLostPackets 	0
scalar RSUExampleScenario.node[2].nic.mac1609_4 	RXTXLostPackets 	0
scalar RSUExampleScenario.node[2].nic.mac1609_4 	TotalLostPackets 	0
scalar RSUExampleScenario.node[2].nic.mac1609_4 	DroppedPacketsInMac 	0
scalar RSUExampleScenario.node[2].nic.mac1609_4 	TooLittleTime 	0
scalar RSUExampleScenario.node[2].nic.mac1609_4 	TimesIntoBackoff 	1
scalar RSUExampleScenario.node[2].nic.mac1609_4 	SlotsBackoff 	2
scalar RSUExampleScenario.node[2].nic.mac1609_4 	NumInternalContention 	0
scalar RSUExampleScenario.node[2].nic.mac1609_4 	totalBusyTime 	0.001825
scalar RSUExampleScenario.node[2].veinsmobility 	startTime 	5
scalar RSUExampleScenario.node[2].veinsmobility 	totalTime 	350
scalar RSUExampleScenario.node[2].veinsmobility 	stopTime 	356
scalar RSUExampleScenario.node[2].veinsmobility 	minSpeed 	0
scalar RSUExampleScenario.node[2].veinsmobility 	maxSpeed 	27.775718133599
scalar RSUExampleScenario.node[2].veinsmobility 	totalDistance 	3394.8633774495
scalar RSUExampleScenario.node[2].veinsmobility 	totalCO2Emission 	907.18949728637
scalar RSUExampleScenario.node[4].nic.phy80211p 	busyTime 	4.1739130434783e-06
scalar RSUExampleScenario.node[4].nic.mac1609_4 	ReceivedUnicastPackets 	0
scalar RSUExampleScenario.node[4].nic.mac1609_4 	ReceivedBroadcasts 	18
scalar RSUExampleScenario.node[4].nic.mac1609_4 	SentPackets 	1
scalar RSUExampleScenario.node[4].nic.mac1609_4 	SNIRLostPackets 	0
scalar RSUExampleScenario.node[4].nic.mac1609_4 	RXTXLostPackets 	0
scalar RSUExampleScenario.node[4].nic.mac1609_4 	TotalLostPackets 	0
scalar RSUExampleScenario.node[4].nic.mac1609_4 	DroppedPacketsInMac 	0
scalar RSUExampleScenario.node[4].nic.mac1609_4 	TooLittleTime 	0
scalar RSUExampleScenario.node[4].nic.mac1609_4 	TimesIntoBackoff 	1
scalar RSUExampleScenario.node[4].nic.mac1609_4 	SlotsBackoff 	5
scalar RSUExampleScenario.node[4].nic.mac1609_4 	NumInternalContention 	0
scalar RSUExampleScenario.node[4].nic.mac1609_4 	totalBusyTime 	0.001825
scalar RSUExampleScenario.node[4].veinsmobility 	startTime 	8
scalar RSUExampleScenario.node[4].veinsmobility 	totalTime 	413
scalar RSUExampleScenario.node[4].veinsmobility 	stopTime 	422
scalar RSUExampleScenario.node[4].veinsmobility 	minSpeed 	0
scalar RSUExampleScenario.node[4].veinsmobility 	maxSpeed 	27.76782984267
scalar RSUExampleScenario.node[4].veinsmobility 	totalDistance 	3396.957800509
scalar RSUExampleScenario.node[4].veinsmobility 	totalCO2Emission 	968.79203323824
scalar RSUExampleScenario.node[3].nic.phy80211p 	busyTime 	4.133971291866e-06
scalar RSUExampleScenario.node[3].nic.mac1609_4 	ReceivedUnicastPackets 	0
scalar RSUExampleScenario.node[3].nic.mac1609_4 	ReceivedBroadcasts 	18
scalar RSUExampleScenario.node[3].nic.mac1609_4 	SentPackets 	1
scalar RSUExampleScenario.node[3].nic.mac1609_4 	SNIRLostPackets 	0
scalar RSUExampleScenario.node[3].nic.mac1609_4 	RXTXLostPackets 	0
scalar RSUExampleScenario.node[3].nic.mac1609_4 	TotalLostPackets 	0
scalar RSUExampleScenario.node[3].nic.mac1609_4 	DroppedPacketsInMac 	0
scalar RSUExampleScenario.node[3].nic.mac1609_4 	TooLittleTime 	0
scalar RSUExampleScenario.node[3].nic.mac1609_4 	TimesIntoBackoff 	1
scalar RSUExampleScenario.node[3].nic.mac1609_4 	SlotsBackoff 	5
scalar RSUExampleScenario.node[3].nic.mac1609_4 	NumInternalContention 	0
scalar RSUExampleScenario.node[3].nic.mac1609_4 	totalBusyTime 	0.001825
scalar RSUExampleScenario.node[3].veinsmobility 	startTime 	7
scalar RSUExampleScenario.node[3].veinsmobility 	totalTime 	417
scalar RSUExampleScenario.node[3].veinsmobility 	stopTime 	425
scalar RSUExampleScenario.node[3].veinsmobility 	minSpeed 	0
scalar RSUExampleScenario.node[3].veinsmobility 	maxSpeed 	27.760502711022
scalar RSUExampleScenario.node[3].veinsmobility 	totalDistance 	3404.2289292138
scalar RSUExampleScenario.node[3].veinsmobility 	totalCO2Emission 	1050.637151835
scalar RSUExampleScenario.node[5].nic.phy80211p 	busyTime 	4.0443458980044e-06
scalar RSUExampleScenario.node[5].nic.mac1609_4 	ReceivedUnicastPackets 	0
scalar RSUExampleScenario.node[5].nic.mac1609_4 	ReceivedBroadcasts 	17
scalar RSUExampleScenario.node[5].nic.mac1609_4 	SentPackets 	1
scalar RSUExampleScenario.node[5].nic.mac1609_4 	SNIRLostPackets 	2
scalar RSUExampleScenario.node[5].nic.mac1609_4 	RXTXLostPackets 	0
scalar RSUExampleScenario.node[5].nic.mac1609_4 	TotalLostPackets 	2
scalar RSUExampleScenario.node[5].nic.mac1609_4 	DroppedPacketsInMac 	0
scalar RSUExampleScenario.node[5].nic.mac1609_4 	TooLittleTime 	0
scalar RSUExampleScenario.node[5].nic.mac1609_4 	TimesIntoBackoff 	1
scalar RSUExampleScenario.node[5].nic.mac1609_4 	SlotsBackoff 	7
scalar RSUExampleScenario.node[5].nic.mac1609_4 	NumInternalContention 	0
scalar RSUExampleScenario.node[5].nic.mac1609_4 	totalBusyTime 	0.001825
scalar RSUExampleScenario.node[5].veinsmobility 	startTime 	10
scalar RSUExampleScenario.node[5].veinsmobility 	totalTime 	450
scalar RSUExampleScenario.node[5].veinsmobility 	stopTime 	461
scalar RSUExampleScenario.node[5].veinsmobility 	minSpeed 	0
scalar RSUExampleScenario.node[5].veinsmobility 	maxSpeed 	27.749402083084
scalar RSUExampleScenario.node[5].veinsmobility 	totalDistance 	3401.0934590808
scalar RSUExampleScenario.node[5].veinsmobility 	totalCO2Emission 	1048.3532472836
scalar RSUExampleScenario.node[7].nic.phy80211p 	busyTime 	4.1558441558442e-06
scalar RSUExampleScenario.node[7].nic.mac1609_4 	ReceivedUnicastPackets 	0
scalar RSUExampleScenario.node[7].nic.mac1609_4 	ReceivedBroadcasts 	18
scalar RSUExampleScenario.node[7].nic.mac1609_4 	SentPackets 	1
scalar RSUExampleScenario.node[7].nic.mac1609_4 	SNIRLostPackets 	2
scalar RSUExampleScenario.node[7].nic.mac1609_4 	RXTXLostPackets 	0
scalar RSUExampleScenario.node[7].nic.mac1609_4 	TotalLostPackets 	2
scalar RSUExampleScenario.node[7].nic.mac1609_4 	DroppedPacketsInMac 	0
scalar RSUExampleScenario.node[7].nic.mac1609_4 	TooLittleTime 	0
scalar RSUExampleScenario.node[7].nic.mac1609_4 	TimesIntoBackoff 	1
scalar RSUExampleScenario.node[7].nic.mac1609_4 	SlotsBackoff 	4
scalar RSUExampleScenario.node[7].nic.mac1609_4 	NumInternalContention 	0
scalar RSUExampleScenario.node[7].nic.mac1609_4 	totalBusyTime 	0.001921
scalar RSUExampleScenario.node[7].veinsmobility 	startTime 	14
scalar RSUExampleScenario.node[7].veinsmobility 	totalTime 	461
scalar RSUExampleScenario.node[7].veinsmobility 	stopTime 	476
scalar RSUExampleScenario.node[7].veinsmobility 	minSpeed 	0
scalar RSUExampleScenario.node[7].veinsmobility 	maxSpeed 	27.761596431881
scalar RSUExampleScenario.node[7].veinsmobility 	totalDistance 	3404.2300825465
scalar RSUExampleScenario.node[7].veinsmobility 	totalCO2Emission 	1015.5977414661
scalar RSUExampleScenario.node[15].nic.phy80211p 	busyTime 	5.6585365853659e-06
scalar RSUExampleScenario.node[15].nic.mac1609_4 	ReceivedUnicastPackets 	0
scalar RSUExampleScenario.node[15].nic.mac1609_4 	ReceivedBroadcasts 	19
scalar RSUExampleScenario.node[15].nic.mac1609_4 	SentPackets 	1
scalar RSUExampleScenario.node[15].nic.mac1609_4 	SNIRLostPackets 	10
scalar RSUExampleScenario.node[15].nic.mac1609_4 	RXTXLostPackets 	0
scalar RSUExampleScenario.node[15].nic.mac1609_4 	TotalLostPackets 	10
scalar RSUExampleScenario.node[15].nic.mac1609_4 	DroppedPacketsInMac 	0
scalar RSUExampleScenario.node[15].nic.mac1609_4 	TooLittleTime 	0
scalar RSUExampleScenario.node[15].nic.mac1609_4 	TimesIntoBackoff 	2
scalar RSUExampleScenario.node[15].nic.mac1609_4 	SlotsBackoff 	5
scalar RSUExampleScenario.node[15].nic.mac1609_4 	NumInternalContention 	0
scalar RSUExampleScenario.node[15].nic.mac1609_4 	totalBusyTime 	0.002401
scalar RSUExampleScenario.node[15].veinsmobility 	startTime 	28
scalar RSUExampleScenario.node[15].veinsmobility 	totalTime 	491
scalar RSUExampleScenario.node[15].veinsmobility 	stopTime 	520
scalar RSUExampleScenario.node[15].veinsmobility 	minSpeed 	0
scalar RSUExampleScenario.node[15].veinsmobility 	maxSpeed 	27.750350924125
scalar RSUExampleScenario.node[15].veinsmobility 	totalDistance 	3394.7161804703
scalar RSUExampleScenario.node[15].veinsmobility 	totalCO2Emission 	1088.1706877534
scalar RSUExampleScenario.node[13].nic.phy80211p 	busyTime 	4.9846153846154e-06
scalar RSUExampleScenario.node[13].nic.mac1609_4 	ReceivedUnicastPackets 	0
scalar RSUExampleScenario.node[13].nic.mac1609_4 	ReceivedBroadcasts 	19
scalar RSUExampleScenario.node[13].nic.mac1609_4 	SentPackets 	1
scalar RSUExampleScenario.node[13].nic.mac1609_4 	SNIRLostPackets 	8
scalar RSUExampleScenario.node[13].nic.mac1609_4 	RXTXLostPackets 	0
scalar RSUExampleScenario.node[13].nic.mac1609_4 	TotalLostPackets 	8
scalar RSUExampleScenario.node[13].nic.mac1609_4 	DroppedPacketsInMac 	0
scalar RSUExampleScenario.node[13].nic.mac1609_4 	TooLittleTime 	0
scalar RSUExampleScenario.node[13].nic.mac1609_4 	TimesIntoBackoff 	1
scalar RSUExampleScenario.node[13].nic.mac1609_4 	SlotsBackoff 	0
scalar RSUExampleScenario.node[13].nic.mac1609_4 	NumInternalContention 	0
scalar RSUExampleScenario.node[13].nic.mac1609_4 	totalBusyTime 	0.002305008924
scalar RSUExampleScenario.node[13].veinsmobility 	startTime 	25
scalar RSUExampleScenario.node[13].veinsmobility 	totalTime 	519
scalar RSUExampleScenario.node[13].veinsmobility 	stopTime 	545
scalar RSUExampleScenario.node[13].veinsmobility 	minSpeed 	0
scalar RSUExampleScenario.node[13].veinsmobility 	maxSpeed 	27.775923804259
scalar RSUExampleScenario.node[13].veinsmobility 	totalDistance 	3404.5864673928
scalar RSUExampleScenario.node[13].veinsmobility 	totalCO2Emission 	1100.1778452993
scalar RSUExampleScenario.node[14].nic.phy80211p 	busyTime 	5.1692307692308e-06
scalar RSUExampleScenario.node[14].nic.mac1609_4 	ReceivedUnicastPackets 	0
scalar RSUExampleScenario.node[14].nic.mac1609_4 	ReceivedBroadcasts 	20
scalar RSUExampleScenario.node[14].nic.mac1609_4 	SentPackets 	1
scalar RSUExampleScenario.node[14].nic.mac1609_4 	SNIRLostPackets 	8
scalar RSUExampleScenario.node[14].nic.mac1609_4 	RXTXLostPackets 	0
scalar RSUExampleScenario.node[14].nic.mac1609_4 	TotalLostPackets 	8
scalar RSUExampleScenario.node[14].nic.mac1609_4 	DroppedPacketsInMac 	0
scalar RSUExampleScenario.node[14].nic.mac1609_4 	TooLittleTime 	0
scalar RSUExampleScenario.node[14].nic.mac1609_4 	TimesIntoBackoff 	2
scalar RSUExampleScenario.node[14].nic.mac1609_4 	SlotsBackoff 	10
scalar RSUExampleScenario.node[14].nic.mac1609_4 	NumInternalContention 	0
scalar RSUExampleScenario.node[14].nic.mac1609_4 	totalBusyTime 	0.002401
scalar RSUExampleScenario.node[14].veinsmobility 	startTime 	27
scalar RSUExampleScenario.node[14].veinsmobility 	totalTime 	519
scalar RSUExampleScenario.node[14].veinsmobility 	stopTime 	547
scalar RSUExampleScenario.node[14].veinsmobility 	minSpeed 	0
scalar RSUExampleScenario.node[14].veinsmobility 	maxSpeed 	27.768827114431
scalar RSUExampleScenario.node[14].veinsmobility 	totalDistance 	3396.7103724834
scalar RSUExampleScenario.node[14].veinsmobility 	totalCO2Emission 	1209.8370380298
scalar RSUExampleScenario.node[10].nic.phy80211p 	busyTime 	3.8037735849057e-06
scalar RSUExampleScenario.node[10].nic.mac1609_4 	ReceivedUnicastPackets 	0
scalar RSUExampleScenario.node[10].nic.mac1609_4 	ReceivedBroadcasts 	17
scalar RSUExampleScenario.node[10].nic.mac1609_4 	SentPackets 	1
scalar RSUExampleScenario.node[10].nic.mac1609_4 	SNIRLostPackets 	4
scalar RSUExampleScenario.node[10].nic.mac1609_4 	RXTXLostPackets 	0
scalar RSUExampleScenario.node[10].nic.mac1609_4 	TotalLostPackets 	4
scalar RSUExampleScenario.node[10].nic.mac1609_4 	DroppedPacketsInMac 	0
scalar RSUExampleScenario.node[10].nic.mac1609_4 	TooLittleTime 	0
scalar RSUExampleScenario.node[10].nic.mac1609_4 	TimesIntoBackoff 	2
scalar RSUExampleScenario.node[10].nic.mac1609_4 	SlotsBackoff 	2
scalar RSUExampleScenario.node[10].nic.mac1609_4 	NumInternalContention 	0
scalar RSUExampleScenario.node[10].nic.mac1609_4 	totalBusyTime 	0.001921
scalar RSUExampleScenario.node[10].veinsmobility 	startTime 	19
scalar RSUExampleScenario.node[10].veinsmobility 	totalTime 	529
scalar RSUExampleScenario.node[10].veinsmobility 	stopTime 	549
scalar RSUExampleScenario.node[10].veinsmobility 	minSpeed 	0
scalar RSUExampleScenario.node[10].veinsmobility 	maxSpeed 	27.778332308736
scalar RSUExampleScenario.node[10].veinsmobility 	totalDistance 	3391.5060821547
scalar RSUExampleScenario.node[10].veinsmobility 	totalCO2Emission 	1189.0203686054
scalar RSUExampleScenario.node[9].nic.phy80211p 	busyTime 	3.588785046729e-06
scalar RSUExampleScenario.node[9].nic.mac1609_4 	ReceivedUnicastPackets 	0
scalar RSUExampleScenario.node[9].nic.mac1609_4 	ReceivedBroadcasts 	18
scalar RSUExampleScenario.node[9].nic.mac1609_4 	SentPackets 	1
scalar RSUExampleScenario.node[9].nic.mac1609_4 	SNIRLostPackets 	2
scalar RSUExampleScenario.node[9].nic.mac1609_4 	RXTXLostPackets 	0
scalar RSUExampleScenario.node[9].nic.mac1609_4 	TotalLostPackets 	2
scalar RSUExampleScenario.node[9].nic.mac1609_4 	DroppedPacketsInMac 	0
scalar RSUExampleScenario.node[9].nic.mac1609_4 	TooLittleTime 	0
scalar RSUExampleScenario.node[9].nic.mac1609_4 	TimesIntoBackoff 	2
scalar RSUExampleScenario.node[9].nic.mac1609_4 	SlotsBackoff 	6
scalar RSUExampleScenario.node[9].nic.mac1609_4 	NumInternalContention 	0
scalar RSUExampleScenario.node[9].nic.mac1609_4 	totalBusyTime 	0.001921
scalar RSUExampleScenario.node[9].veinsmobility 	startTime 	17
scalar RSUExampleScenario.node[9].veinsmobility 	totalTime 	534
scalar RSUExampleScenario.node[9].veinsmobility 	stopTime 	552
scalar RSUExampleScenario.node[9].veinsmobility 	minSpeed 	0
scalar RSUExampleScenario.node[9].veinsmobility 	maxSpeed 	27.772348883394
scalar RSUExampleScenario.node[9].veinsmobility 	totalDistance 	3412.0196389488
scalar RSUExampleScenario.node[9].veinsmobility 	totalCO2Emission 	1204.7409595097
scalar RSUExampleScenario.node[1].nic.phy80211p 	busyTime 	3.1023339317774e-06
scalar RSUExampleScenario.node[1].nic.mac1609_4 	ReceivedUnicastPackets 	0
scalar RSUExampleScenario.node[1].nic.mac1609_4 	ReceivedBroadcasts 	18
scalar RSUExampleScenario.node[1].nic.mac1609_4 	SentPackets 	1
scalar RSUExampleScenario.node[1].nic.mac1609_4 	SNIRLostPackets 	0
scalar RSUExampleScenario.node[1].nic.mac1609_4 	RXTXLostPackets 	0
scalar RSUExampleScenario.node[1].nic.mac1609_4 	TotalLostPackets 	0
scalar RSUExampleScenario.node[1].nic.mac1609_4 	DroppedPacketsInMac 	0
scalar RSUExampleScenario.node[1].nic.mac1609_4 	TooLittleTime 	0
scalar RSUExampleScenario.node[1].nic.mac1609_4 	TimesIntoBackoff 	2
scalar RSUExampleScenario.node[1].nic.mac1609_4 	SlotsBackoff 	4
scalar RSUExampleScenario.node[1].nic.mac1609_4 	NumInternalContention 	0
scalar RSUExampleScenario.node[1].nic.mac1609_4 	totalBusyTime 	0.001825
scalar RSUExampleScenario.node[1].veinsmobility 	startTime 	3
scalar RSUExampleScenario.node[1].veinsmobility 	totalTime 	556
scalar RSUExampleScenario.node[1].veinsmobility 	stopTime 	560
scalar RSUExampleScenario.node[1].veinsmobility 	minSpeed 	0
scalar RSUExampleScenario.node[1].veinsmobility 	maxSpeed 	27.77602887008
scalar RSUExampleScenario.node[1].veinsmobility 	totalDistance 	3397.8569707228
scalar RSUExampleScenario.node[1].veinsmobility 	totalCO2Emission 	1112.5393351434
scalar RSUExampleScenario.node[11].nic.phy80211p 	busyTime 	3.719557195572e-06
scalar RSUExampleScenario.node[11].nic.mac1609_4 	ReceivedUnicastPackets 	0
scalar RSUExampleScenario.node[11].nic.mac1609_4 	ReceivedBroadcasts 	17
scalar RSUExampleScenario.node[11].nic.mac1609_4 	SentPackets 	1
scalar RSUExampleScenario.node[11].nic.mac1609_4 	SNIRLostPackets 	4
scalar RSUExampleScenario.node[11].nic.mac1609_4 	RXTXLostPackets 	0
scalar RSUExampleScenario.node[11].nic.mac1609_4 	TotalLostPackets 	4
scalar RSUExampleScenario.node[11].nic.mac1609_4 	DroppedPacketsInMac 	0
scalar RSUExampleScenario.node[11].nic.mac1609_4 	TooLittleTime 	0
scalar RSUExampleScenario.node[11].nic.mac1609_4 	TimesIntoBackoff 	2
scalar RSUExampleScenario.node[11].nic.mac1609_4 	SlotsBackoff 	4
scalar RSUExampleScenario.node[11].nic.mac1609_4 	NumInternalContention 	0
scalar RSUExampleScenario.node[11].nic.mac1609_4 	totalBusyTime 	0.001921
scalar RSUExampleScenario.node[11].veinsmobility 	startTime 	20
scalar RSUExampleScenario.node[11].veinsmobility 	totalTime 	541
scalar RSUExampleScenario.node[11].veinsmobility 	stopTime 	562
scalar RSUExampleScenario.node[11].veinsmobility 	minSpeed 	0
scalar RSUExampleScenario.node[11].veinsmobility 	maxSpeed 	27.760627242345
scalar RSUExampleScenario.node[11].veinsmobility 	totalDistance 	3410.7011441266
scalar RSUExampleScenario.node[11].veinsmobility 	totalCO2Emission 	1223.5493897419
scalar RSUExampleScenario.node[8].nic.phy80211p 	busyTime 	3.4594594594595e-06
scalar RSUExampleScenario.node[8].nic.mac1609_4 	ReceivedUnicastPackets 	0
scalar RSUExampleScenario.node[8].nic.mac1609_4 	ReceivedBroadcasts 	18
scalar RSUExampleScenario.node[8].nic.mac1609_4 	SentPackets 	1
scalar RSUExampleScenario.node[8].nic.mac1609_4 	SNIRLostPackets 	2
scalar RSUExampleScenario.node[8].nic.mac1609_4 	RXTXLostPackets 	0
scalar RSUExampleScenario.node[8].nic.mac1609_4 	TotalLostPackets 	2
scalar RSUExampleScenario.node[8].nic.mac1609_4 	DroppedPacketsInMac 	0
scalar RSUExampleScenario.node[8].nic.mac1609_4 	TooLittleTime 	0
scalar RSUExampleScenario.node[8].nic.mac1609_4 	TimesIntoBackoff 	2
scalar RSUExampleScenario.node[8].nic.mac1609_4 	SlotsBackoff 	8
scalar RSUExampleScenario.node[8].nic.mac1609_4 	NumInternalContention 	0
scalar RSUExampleScenario.node[8].nic.mac1609_4 	totalBusyTime 	0.001921
scalar RSUExampleScenario.node[8].veinsmobility 	startTime 	16
scalar RSUExampleScenario.node[8].veinsmobility 	totalTime 	554
scalar RSUExampleScenario.node[8].veinsmobility 	stopTime 	571
scalar RSUExampleScenario.node[8].veinsmobility 	minSpeed 	0
scalar RSUExampleScenario.node[8].veinsmobility 	maxSpeed 	27.742133695753
scalar RSUExampleScenario.node[8].veinsmobility 	totalDistance 	3406.536911512
scalar RSUExampleScenario.node[8].veinsmobility 	totalCO2Emission 	1283.4644948479
scalar RSUExampleScenario.node[16].nic.phy80211p 	busyTime 	5.4806629834254e-06
scalar RSUExampleScenario.node[16].nic.mac1609_4 	ReceivedUnicastPackets 	0
scalar RSUExampleScenario.node[16].nic.mac1609_4 	ReceivedBroadcasts 	19
scalar RSUExampleScenario.node[16].nic.mac1609_4 	SentPackets 	1
scalar RSUExampleScenario.node[16].nic.mac1609_4 	SNIRLostPackets 	12
scalar RSUExampleScenario.node[16].nic.mac1609_4 	RXTXLostPackets 	0
scalar RSUExampleScenario.node[16].nic.mac1609_4 	TotalLostPackets 	12
scalar RSUExampleScenario.node[16].nic.mac1609_4 	DroppedPacketsInMac 	0
scalar RSUExampleScenario.node[16].nic.mac1609_4 	TooLittleTime 	0
scalar RSUExampleScenario.node[16].nic.mac1609_4 	TimesIntoBackoff 	2
scalar RSUExampleScenario.node[16].nic.mac1609_4 	SlotsBackoff 	12
scalar RSUExampleScenario.node[16].nic.mac1609_4 	NumInternalContention 	0
scalar RSUExampleScenario.node[16].nic.mac1609_4 	totalBusyTime 	0.002497
scalar RSUExampleScenario.node[16].veinsmobility 	startTime 	30
scalar RSUExampleScenario.node[16].veinsmobility 	totalTime 	542
scalar RSUExampleScenario.node[16].veinsmobility 	stopTime 	573
scalar RSUExampleScenario.node[16].veinsmobility 	minSpeed 	0
scalar RSUExampleScenario.node[16].veinsmobility 	maxSpeed 	27.765769274253
scalar RSUExampleScenario.node[16].veinsmobility 	totalDistance 	3398.872943928
scalar RSUExampleScenario.node[16].veinsmobility 	totalCO2Emission 	1251.2823069588
scalar RSUExampleScenario.node[28].nic.phy80211p 	busyTime 	7.8330170777989e-06
scalar RSUExampleScenario.node[28].nic.mac1609_4 	ReceivedUnicastPackets 	0
scalar RSUExampleScenario.node[28].nic.mac1609_4 	ReceivedBroadcasts 	19
scalar RSUExampleScenario.node[28].nic.mac1609_4 	SentPackets 	1
scalar RSUExampleScenario.node[28].nic.mac1609_4 	SNIRLostPackets 	24
scalar RSUExampleScenario.node[28].nic.mac1609_4 	RXTXLostPackets 	0
scalar RSUExampleScenario.node[28].nic.mac1609_4 	TotalLostPackets 	24
scalar RSUExampleScenario.node[28].nic.mac1609_4 	DroppedPacketsInMac 	0
scalar RSUExampleScenario.node[28].nic.mac1609_4 	TooLittleTime 	0
scalar RSUExampleScenario.node[28].nic.mac1609_4 	TimesIntoBackoff 	2
scalar RSUExampleScenario.node[28].nic.mac1609_4 	SlotsBackoff 	10
scalar RSUExampleScenario.node[28].nic.mac1609_4 	NumInternalContention 	0
scalar RSUExampleScenario.node[28].nic.mac1609_4 	totalBusyTime 	0.003169
scalar RSUExampleScenario.node[28].veinsmobility 	startTime 	49
scalar RSUExampleScenario.node[28].veinsmobility 	totalTime 	526
scalar RSUExampleScenario.node[28].veinsmobility 	stopTime 	576
scalar RSUExampleScenario.node[28].veinsmobility 	minSpeed 	0
scalar RSUExampleScenario.node[28].veinsmobility 	maxSpeed 	27.751797044389
scalar RSUExampleScenario.node[28].veinsmobility 	totalDistance 	3410.2469622515
scalar RSUExampleScenario.node[28].veinsmobility 	totalCO2Emission 	1376.0843056971
scalar RSUExampleScenario.node[40].nic.phy80211p 	busyTime 	7.7988394584139e-06
scalar RSUExampleScenario.node[40].nic.mac1609_4 	ReceivedUnicastPackets 	0
scalar RSUExampleScenario.node[40].nic.mac1609_4 	ReceivedBroadcasts 	35
scalar RSUExampleScenario.node[40].nic.mac1609_4 	SentPackets 	1
scalar RSUExampleScenario.node[40].nic.mac1609_4 	SNIRLostPackets 	7
scalar RSUExampleScenario.node[40].nic.mac1609_4 	RXTXLostPackets 	0
scalar RSUExampleScenario.node[40].nic.mac1609_4 	TotalLostPackets 	7
scalar RSUExampleScenario.node[40].nic.mac1609_4 	DroppedPacketsInMac 	0
scalar RSUExampleScenario.node[40].nic.mac1609_4 	TooLittleTime 	0
scalar RSUExampleScenario.node[40].nic.mac1609_4 	TimesIntoBackoff 	2
scalar RSUExampleScenario.node[40].nic.mac1609_4 	SlotsBackoff 	9
scalar RSUExampleScenario.node[40].nic.mac1609_4 	NumInternalContention 	0
scalar RSUExampleScenario.node[40].nic.mac1609_4 	totalBusyTime 	0.003745
scalar RSUExampleScenario.node[40].veinsmobility 	startTime 	72
scalar RSUExampleScenario.node[40].veinsmobility 	totalTime 	516
scalar RSUExampleScenario.node[40].veinsmobility 	stopTime 	589
scalar RSUExampleScenario.node[40].veinsmobility 	minSpeed 	0
scalar RSUExampleScenario.node[40].veinsmobility 	maxSpeed 	27.668806434395
scalar RSUExampleScenario.node[40].veinsmobility 	totalDistance 	3407.1330846768
scalar RSUExampleScenario.node[40].veinsmobility 	totalCO2Emission 	1346.9181532398
scalar RSUExampleScenario.node[18].nic.phy80211p 	busyTime 	5.505376344086e-06
scalar RSUExampleScenario.node[18].nic.mac1609_4 	ReceivedUnicastPackets 	0
scalar RSUExampleScenario.node[18].nic.mac1609_4 	ReceivedBroadcasts 	17
scalar RSUExampleScenario.node[18].nic.mac1609_4 	SentPackets 	1
scalar RSUExampleScenario.node[18].nic.mac1609_4 	SNIRLostPackets 	15
scalar RSUExampleScenario.node[18].nic.mac1609_4 	RXTXLostPackets 	0
scalar RSUExampleScenario.node[18].nic.mac1609_4 	TotalLostPackets 	15
scalar RSUExampleScenario.node[18].nic.mac1609_4 	DroppedPacketsInMac 	0
scalar RSUExampleScenario.node[18].nic.mac1609_4 	TooLittleTime 	0
scalar RSUExampleScenario.node[18].nic.mac1609_4 	TimesIntoBackoff 	1
scalar RSUExampleScenario.node[18].nic.mac1609_4 	SlotsBackoff 	6
scalar RSUExampleScenario.node[18].nic.mac1609_4 	NumInternalContention 	0
scalar RSUExampleScenario.node[18].nic.mac1609_4 	totalBusyTime 	0.002497
scalar RSUExampleScenario.node[18].veinsmobility 	startTime 	33
scalar RSUExampleScenario.node[18].veinsmobility 	totalTime 	557
scalar RSUExampleScenario.node[18].veinsmobility 	stopTime 	591
scalar RSUExampleScenario.node[18].veinsmobility 	minSpeed 	0
scalar RSUExampleScenario.node[18].veinsmobility 	maxSpeed 	27.744905594364
scalar RSUExampleScenario.node[18].veinsmobility 	totalDistance 	3394.5231072493
scalar RSUExampleScenario.node[18].veinsmobility 	totalCO2Emission 	1315.9047691802
scalar RSUExampleScenario.node[6].nic.phy80211p 	busyTime 	3.4227504244482e-06
scalar RSUExampleScenario.node[6].nic.mac1609_4 	ReceivedUnicastPackets 	0
scalar RSUExampleScenario.node[6].nic.mac1609_4 	ReceivedBroadcasts 	19
scalar RSUExampleScenario.node[6].nic.mac1609_4 	SentPackets 	1
scalar RSUExampleScenario.node[6].nic.mac1609_4 	SNIRLostPackets 	2
scalar RSUExampleScenario.node[6].nic.mac1609_4 	RXTXLostPackets 	0
scalar RSUExampleScenario.node[6].nic.mac1609_4 	TotalLostPackets 	2
scalar RSUExampleScenario.node[6].nic.mac1609_4 	DroppedPacketsInMac 	0
scalar RSUExampleScenario.node[6].nic.mac1609_4 	TooLittleTime 	0
scalar RSUExampleScenario.node[6].nic.mac1609_4 	TimesIntoBackoff 	2
scalar RSUExampleScenario.node[6].nic.mac1609_4 	SlotsBackoff 	9
scalar RSUExampleScenario.node[6].nic.mac1609_4 	NumInternalContention 	0
scalar RSUExampleScenario.node[6].nic.mac1609_4 	totalBusyTime 	0.002017
scalar RSUExampleScenario.node[6].veinsmobility 	startTime 	12
scalar RSUExampleScenario.node[6].veinsmobility 	totalTime 	588
scalar RSUExampleScenario.node[6].veinsmobility 	stopTime 	601
scalar RSUExampleScenario.node[6].veinsmobility 	minSpeed 	0
scalar RSUExampleScenario.node[6].veinsmobility 	maxSpeed 	27.776827256457
scalar RSUExampleScenario.node[6].veinsmobility 	totalDistance 	3395.5084785342
scalar RSUExampleScenario.node[6].veinsmobility 	totalCO2Emission 	1104.953292889
scalar RSUExampleScenario.node[31].nic.phy80211p 	busyTime 	6.4817518248175e-06
scalar RSUExampleScenario.node[31].nic.mac1609_4 	ReceivedUnicastPackets 	0
scalar RSUExampleScenario.node[31].nic.mac1609_4 	ReceivedBroadcasts 	19
scalar RSUExampleScenario.node[31].nic.mac1609_4 	SentPackets 	1
scalar RSUExampleScenario.node[31].nic.mac1609_4 	SNIRLostPackets 	18
scalar RSUExampleScenario.node[31].nic.mac1609_4 	RXTXLostPackets 	0
scalar RSUExampleScenario.node[31].nic.mac1609_4 	TotalLostPackets 	18
scalar RSUExampleScenario.node[31].nic.mac1609_4 	DroppedPacketsInMac 	0
scalar RSUExampleScenario.node[31].nic.mac1609_4 	TooLittleTime 	0
scalar RSUExampleScenario.node[31].nic.mac1609_4 	TimesIntoBackoff 	1
scalar RSUExampleScenario.node[31].nic.mac1609_4 	SlotsBackoff 	4
scalar RSUExampleScenario.node[31].nic.mac1609_4 	NumInternalContention 	0
scalar RSUExampleScenario.node[31].nic.mac1609_4 	totalBusyTime 	0.002857007967
scalar RSUExampleScenario.node[31].veinsmobility 	startTime 	55
scalar RSUExampleScenario.node[31].veinsmobility 	totalTime 	547
scalar RSUExampleScenario.node[31].veinsmobility 	stopTime 	603
scalar RSUExampleScenario.node[31].veinsmobility 	minSpeed 	0
scalar RSUExampleScenario.node[31].veinsmobility 	maxSpeed 	16.654151447816
scalar RSUExampleScenario.node[31].veinsmobility 	totalDistance 	3247.8573493194
scalar RSUExampleScenario.node[31].veinsmobility 	totalCO2Emission 	1091.8346647472
scalar RSUExampleScenario.node[32].nic.phy80211p 	busyTime 	6e-06
scalar RSUExampleScenario.node[32].nic.mac1609_4 	ReceivedUnicastPackets 	0
scalar RSUExampleScenario.node[32].nic.mac1609_4 	ReceivedBroadcasts 	20
scalar RSUExampleScenario.node[32].nic.mac1609_4 	SentPackets 	1
scalar RSUExampleScenario.node[32].nic.mac1609_4 	SNIRLostPackets 	15
scalar RSUExampleScenario.node[32].nic.mac1609_4 	RXTXLostPackets 	0
scalar RSUExampleScenario.node[32].nic.mac1609_4 	TotalLostPackets 	15
scalar RSUExampleScenario.node[32].nic.mac1609_4 	DroppedPacketsInMac 	0
scalar RSUExampleScenario.node[32].nic.mac1609_4 	TooLittleTime 	0
scalar RSUExampleScenario.node[32].nic.mac1609_4 	TimesIntoBackoff 	2
scalar RSUExampleScenario.node[32].nic.mac1609_4 	SlotsBackoff 	7
scalar RSUExampleScenario.node[32].nic.mac1609_4 	NumInternalContention 	0
scalar RSUExampleScenario.node[32].nic.mac1609_4 	totalBusyTime 	0.002894235009
scalar RSUExampleScenario.node[32].veinsmobility 	startTime 	56
scalar RSUExampleScenario.node[32].veinsmobility 	totalTime 	559
scalar RSUExampleScenario.node[32].veinsmobility 	stopTime 	616
scalar RSUExampleScenario.node[32].veinsmobility 	minSpeed 	0
scalar RSUExampleScenario.node[32].veinsmobility 	maxSpeed 	16.649928788012
scalar RSUExampleScenario.node[32].veinsmobility 	totalDistance 	3257.5346484321
scalar RSUExampleScenario.node[32].veinsmobility 	totalCO2Emission 	1132.7631751086
scalar RSUExampleScenario.node[34].nic.phy80211p 	busyTime 	6.5376344086022e-06
scalar RSUExampleScenario.node[34].nic.mac1609_4 	ReceivedUnicastPackets 	0
scalar RSUExampleScenario.node[34].nic.mac1609_4 	ReceivedBroadcasts 	28
scalar RSUExampleScenario.node[34].nic.mac1609_4 	SentPackets 	1
scalar RSUExampleScenario.node[34].nic.mac1609_4 	SNIRLostPackets 	10
scalar RSUExampleScenario.node[34].nic.mac1609_4 	RXTXLostPackets 	0
scalar RSUExampleScenario.node[34].nic.mac1609_4 	TotalLostPackets 	10
scalar RSUExampleScenario.node[34].nic.mac1609_4 	DroppedPacketsInMac 	0
scalar RSUExampleScenario.node[34].nic.mac1609_4 	TooLittleTime 	0
scalar RSUExampleScenario.node[34].nic.mac1609_4 	TimesIntoBackoff 	2
scalar RSUExampleScenario.node[34].nic.mac1609_4 	SlotsBackoff 	9
scalar RSUExampleScenario.node[34].nic.mac1609_4 	NumInternalContention 	0
scalar RSUExampleScenario.node[34].nic.mac1609_4 	totalBusyTime 	0.003265
scalar RSUExampleScenario.node[34].veinsmobility 	startTime 	60
scalar RSUExampleScenario.node[34].veinsmobility 	totalTime 	557
scalar RSUExampleScenario.node[34].veinsmobility 	stopTime 	618
scalar RSUExampleScenario.node[34].veinsmobility 	minSpeed 	0
scalar RSUExampleScenario.node[34].veinsmobility 	maxSpeed 	27.778022943148
scalar RSUExampleScenario.node[34].veinsmobility 	totalDistance 	3400.7148075314
scalar RSUExampleScenario.node[34].veinsmobility 	totalCO2Emission 	1357.950406319
scalar RSUExampleScenario.node[54].nic.phy80211p 	busyTime 	2.2773722627737e-06
scalar RSUExampleScenario.node[54].nic.mac1609_4 	ReceivedUnicastPackets 	0
scalar RSUExampleScenario.node[54].nic.mac1609_4 	ReceivedBroadcasts 	13
scalar RSUExampleScenario.node[54].nic.mac1609_4 	SentPackets 	1
scalar RSUExampleScenario.node[54].nic.mac1609_4 	SNIRLostPackets 	0
scalar RSUExampleScenario.node[54].nic.mac1609_4 	RXTXLostPackets 	0
scalar RSUExampleScenario.node[54].nic.mac1609_4 	TotalLostPackets 	0
scalar RSUExampleScenario.node[54].nic.mac1609_4 	DroppedPacketsInMac 	0
scalar RSUExampleScenario.node[54].nic.mac1609_4 	TooLittleTime 	0
scalar RSUExampleScenario.node[54].nic.mac1609_4 	TimesIntoBackoff 	1
scalar RSUExampleScenario.node[54].nic.mac1609_4 	SlotsBackoff 	0
scalar RSUExampleScenario.node[54].nic.mac1609_4 	NumInternalContention 	0
scalar RSUExampleScenario.node[54].nic.mac1609_4 	totalBusyTime 	0.001345
scalar RSUExampleScenario.node[54].veinsmobility 	startTime 	102
scalar RSUExampleScenario.node[54].veinsmobility 	totalTime 	547
scalar RSUExampleScenario.node[54].veinsmobility 	stopTime 	650
scalar RSUExampleScenario.node[54].veinsmobility 	minSpeed 	0
scalar RSUExampleScenario.node[54].veinsmobility 	maxSpeed 	27.763694586232
scalar RSUExampleScenario.node[54].veinsmobility 	totalDistance 	3396.6322897799
scalar RSUExampleScenario.node[54].veinsmobility 	totalCO2Emission 	1314.8902708725
scalar RSUExampleScenario.node[17].nic.phy80211p 	busyTime 	4.7845659163987e-06
scalar RSUExampleScenario.node[17].nic.mac1609_4 	ReceivedUnicastPackets 	0
scalar RSUExampleScenario.node[17].nic.mac1609_4 	ReceivedBroadcasts 	18
scalar RSUExampleScenario.node[17].nic.mac1609_4 	SentPackets 	1
scalar RSUExampleScenario.node[17].nic.mac1609_4 	SNIRLostPackets 	13
scalar RSUExampleScenario.node[17].nic.mac1609_4 	RXTXLostPackets 	0
scalar RSUExampleScenario.node[17].nic.mac1609_4 	TotalLostPackets 	13
scalar RSUExampleScenario.node[17].nic.mac1609_4 	DroppedPacketsInMac 	0
scalar RSUExampleScenario.node[17].nic.mac1609_4 	TooLittleTime 	0
scalar RSUExampleScenario.node[17].nic.mac1609_4 	TimesIntoBackoff 	2
scalar RSUExampleScenario.node[17].nic.mac1609_4 	SlotsBackoff 	7
scalar RSUExampleScenario.node[17].nic.mac1609_4 	NumInternalContention 	0
scalar RSUExampleScenario.node[17].nic.mac1609_4 	totalBusyTime 	0.002497
scalar RSUExampleScenario.node[17].veinsmobility 	startTime 	31
scalar RSUExampleScenario.node[17].veinsmobility 	totalTime 	621
scalar RSUExampleScenario.node[17].veinsmobility 	stopTime 	653
scalar RSUExampleScenario.node[17].veinsmobility 	minSpeed 	0
scalar RSUExampleScenario.node[17].veinsmobility 	maxSpeed 	27.756765605099
scalar RSUExampleScenario.node[17].veinsmobility 	totalDistance 	3403.2160334486
scalar RSUExampleScenario.node[17].veinsmobility 	totalCO2Emission 	1453.0191513624
scalar RSUExampleScenario.node[12].nic.phy80211p 	busyTime 	3.75e-06
scalar RSUExampleScenario.node[12].nic.mac1609_4 	ReceivedUnicastPackets 	0
scalar RSUExampleScenario.node[12].nic.mac1609_4 	ReceivedBroadcasts 	19
scalar RSUExampleScenario.node[12].nic.mac1609_4 	SentPackets 	1
scalar RSUExampleScenario.node[12].nic.mac1609_4 	SNIRLostPackets 	6
scalar RSUExampleScenario.node[12].nic.mac1609_4 	RXTXLostPackets 	1
scalar RSUExampleScenario.node[12].nic.mac1609_4 	TotalLostPackets 	7
scalar RSUExampleScenario.node[12].nic.mac1609_4 	DroppedPacketsInMac 	0
scalar RSUExampleScenario.node[12].nic.mac1609_4 	TooLittleTime 	0
scalar RSUExampleScenario.node[12].nic.mac1609_4 	TimesIntoBackoff 	1
scalar RSUExampleScenario.node[12].nic.mac1609_4 	SlotsBackoff 	6
scalar RSUExampleScenario.node[12].nic.mac1609_4 	NumInternalContention 	0
scalar RSUExampleScenario.node[12].nic.mac1609_4 	totalBusyTime 	0.002209
scalar RSUExampleScenario.node[12].veinsmobility 	startTime 	23
scalar RSUExampleScenario.node[12].veinsmobility 	totalTime 	639
scalar RSUExampleScenario.node[12].veinsmobility 	stopTime 	663
scalar RSUExampleScenario.node[12].veinsmobility 	minSpeed 	0
scalar RSUExampleScenario.node[12].veinsmobility 	maxSpeed 	27.743259393638
scalar RSUExampleScenario.node[12].veinsmobility 	totalDistance 	3393.2165566508
scalar RSUExampleScenario.node[12].veinsmobility 	totalCO2Emission 	1159.6176263828
scalar RSUExampleScenario.node[30].nic.phy80211p 	busyTime 	5.8039215686275e-06
scalar RSUExampleScenario.node[30].nic.mac1609_4 	ReceivedUnicastPackets 	0
scalar RSUExampleScenario.node[30].nic.mac1609_4 	ReceivedBroadcasts 	19
scalar RSUExampleScenario.node[30].nic.mac1609_4 	SentPackets 	1
scalar RSUExampleScenario.node[30].nic.mac1609_4 	SNIRLostPackets 	18
scalar RSUExampleScenario.node[30].nic.mac1609_4 	RXTXLostPackets 	0
scalar RSUExampleScenario.node[30].nic.mac1609_4 	TotalLostPackets 	18
scalar RSUExampleScenario.node[30].nic.mac1609_4 	DroppedPacketsInMac 	0
scalar RSUExampleScenario.node[30].nic.mac1609_4 	TooLittleTime 	0
scalar RSUExampleScenario.node[30].nic.mac1609_4 	TimesIntoBackoff 	2
scalar RSUExampleScenario.node[30].nic.mac1609_4 	SlotsBackoff 	9
scalar RSUExampleScenario.node[30].nic.mac1609_4 	NumInternalContention 	0
scalar RSUExampleScenario.node[30].nic.mac1609_4 	totalBusyTime 	0.002857006885
scalar RSUExampleScenario.node[30].veinsmobility 	startTime 	53
scalar RSUExampleScenario.node[30].veinsmobility 	totalTime 	611
scalar RSUExampleScenario.node[30].veinsmobility 	stopTime 	665
scalar RSUExampleScenario.node[30].veinsmobility 	minSpeed 	0
scalar RSUExampleScenario.node[30].veinsmobility 	maxSpeed 	16.662684131674
scalar RSUExampleScenario.node[30].veinsmobility 	totalDistance 	3354.1671063257
scalar RSUExampleScenario.node[30].veinsmobility 	totalCO2Emission 	1139.6865569531
scalar RSUExampleScenario.node[33].nic.phy80211p 	busyTime 	5.2019704433498e-06
scalar RSUExampleScenario.node[33].nic.mac1609_4 	ReceivedUnicastPackets 	0
scalar RSUExampleScenario.node[33].nic.mac1609_4 	ReceivedBroadcasts 	21
scalar RSUExampleScenario.node[33].nic.mac1609_4 	SentPackets 	1
scalar RSUExampleScenario.node[33].nic.mac1609_4 	SNIRLostPackets 	12
scalar RSUExampleScenario.node[33].nic.mac1609_4 	RXTXLostPackets 	0
scalar RSUExampleScenario.node[33].nic.mac1609_4 	TotalLostPackets 	12
scalar RSUExampleScenario.node[33].nic.mac1609_4 	DroppedPacketsInMac 	0
scalar RSUExampleScenario.node[33].nic.mac1609_4 	TooLittleTime 	0
scalar RSUExampleScenario.node[33].nic.mac1609_4 	TimesIntoBackoff 	1
scalar RSUExampleScenario.node[33].nic.mac1609_4 	SlotsBackoff 	3
scalar RSUExampleScenario.node[33].nic.mac1609_4 	NumInternalContention 	0
scalar RSUExampleScenario.node[33].nic.mac1609_4 	totalBusyTime 	0.002726183865
scalar RSUExampleScenario.node[33].veinsmobility 	startTime 	58
scalar RSUExampleScenario.node[33].veinsmobility 	totalTime 	608
scalar RSUExampleScenario.node[33].veinsmobility 	stopTime 	667
scalar RSUExampleScenario.node[33].veinsmobility 	minSpeed 	0
scalar RSUExampleScenario.node[33].veinsmobility 	maxSpeed 	16.668081156928
scalar RSUExampleScenario.node[33].veinsmobility 	totalDistance 	3253.3255519479
scalar RSUExampleScenario.node[33].veinsmobility 	totalCO2Emission 	1140.4169936971
scalar RSUExampleScenario.node[29].nic.phy80211p 	busyTime 	5.8933764135703e-06
scalar RSUExampleScenario.node[29].nic.mac1609_4 	ReceivedUnicastPackets 	0
scalar RSUExampleScenario.node[29].nic.mac1609_4 	ReceivedBroadcasts 	18
scalar RSUExampleScenario.node[29].nic.mac1609_4 	SentPackets 	1
scalar RSUExampleScenario.node[29].nic.mac1609_4 	SNIRLostPackets 	20
scalar RSUExampleScenario.node[29].nic.mac1609_4 	RXTXLostPackets 	0
scalar RSUExampleScenario.node[29].nic.mac1609_4 	TotalLostPackets 	20
scalar RSUExampleScenario.node[29].nic.mac1609_4 	DroppedPacketsInMac 	0
scalar RSUExampleScenario.node[29].nic.mac1609_4 	TooLittleTime 	0
scalar RSUExampleScenario.node[29].nic.mac1609_4 	TimesIntoBackoff 	1
scalar RSUExampleScenario.node[29].nic.mac1609_4 	SlotsBackoff 	3
scalar RSUExampleScenario.node[29].nic.mac1609_4 	NumInternalContention 	0
scalar RSUExampleScenario.node[29].nic.mac1609_4 	totalBusyTime 	0.002785
scalar RSUExampleScenario.node[29].veinsmobility 	startTime 	51
scalar RSUExampleScenario.node[29].veinsmobility 	totalTime 	618
scalar RSUExampleScenario.node[29].veinsmobility 	stopTime 	670
scalar RSUExampleScenario.node[29].veinsmobility 	minSpeed 	0
scalar RSUExampleScenario.node[29].veinsmobility 	maxSpeed 	16.660609866753
scalar RSUExampleScenario.node[29].veinsmobility 	totalDistance 	3361.95357924
scalar RSUExampleScenario.node[29].veinsmobility 	totalCO2Emission 	1168.5347237547
scalar RSUExampleScenario.node[56].nic.phy80211p 	busyTime 	2.2049469964664e-06
scalar RSUExampleScenario.node[56].nic.mac1609_4 	ReceivedUnicastPackets 	0
scalar RSUExampleScenario.node[56].nic.mac1609_4 	ReceivedBroadcasts 	13
scalar RSUExampleScenario.node[56].nic.mac1609_4 	SentPackets 	1
scalar RSUExampleScenario.node[56].nic.mac1609_4 	SNIRLostPackets 	0
scalar RSUExampleScenario.node[56].nic.mac1609_4 	RXTXLostPackets 	0
scalar RSUExampleScenario.node[56].nic.mac1609_4 	TotalLostPackets 	0
scalar RSUExampleScenario.node[56].nic.mac1609_4 	DroppedPacketsInMac 	0
scalar RSUExampleScenario.node[56].nic.mac1609_4 	TooLittleTime 	0
scalar RSUExampleScenario.node[56].nic.mac1609_4 	TimesIntoBackoff 	1
scalar RSUExampleScenario.node[56].nic.mac1609_4 	SlotsBackoff 	7
scalar RSUExampleScenario.node[56].nic.mac1609_4 	NumInternalContention 	0
scalar RSUExampleScenario.node[56].nic.mac1609_4 	totalBusyTime 	0.001345
scalar RSUExampleScenario.node[56].veinsmobility 	startTime 	106
scalar RSUExampleScenario.node[56].veinsmobility 	totalTime 	565
scalar RSUExampleScenario.node[56].veinsmobility 	stopTime 	672
scalar RSUExampleScenario.node[56].veinsmobility 	minSpeed 	0
scalar RSUExampleScenario.node[56].veinsmobility 	maxSpeed 	27.701462518554
scalar RSUExampleScenario.node[56].veinsmobility 	totalDistance 	3398.2565121103
scalar RSUExampleScenario.node[56].veinsmobility 	totalCO2Emission 	1406.0762533581
scalar RSUExampleScenario.node[62].nic.phy80211p 	busyTime 	2.2446043165468e-06
scalar RSUExampleScenario.node[62].nic.mac1609_4 	ReceivedUnicastPackets 	0
scalar RSUExampleScenario.node[62].nic.mac1609_4 	ReceivedBroadcasts 	13
scalar RSUExampleScenario.node[62].nic.mac1609_4 	SentPackets 	1
scalar RSUExampleScenario.node[62].nic.mac1609_4 	SNIRLostPackets 	0
scalar RSUExampleScenario.node[62].nic.mac1609_4 	RXTXLostPackets 	0
scalar RSUExampleScenario.node[62].nic.mac1609_4 	TotalLostPackets 	0
scalar RSUExampleScenario.node[62].nic.mac1609_4 	DroppedPacketsInMac 	0
scalar RSUExampleScenario.node[62].nic.mac1609_4 	TooLittleTime 	0
scalar RSUExampleScenario.node[62].nic.mac1609_4 	TimesIntoBackoff 	1
scalar RSUExampleScenario.node[62].nic.mac1609_4 	SlotsBackoff 	1
scalar RSUExampleScenario.node[62].nic.mac1609_4 	NumInternalContention 	0
scalar RSUExampleScenario.node[62].nic.mac1609_4 	totalBusyTime 	0.001345
scalar RSUExampleScenario.node[62].veinsmobility 	startTime 	120
scalar RSUExampleScenario.node[62].veinsmobility 	totalTime 	555
scalar RSUExampleScenario.node[62].veinsmobility 	stopTime 	676
scalar RSUExampleScenario.node[62].veinsmobility 	minSpeed 	0
scalar RSUExampleScenario.node[62].veinsmobility 	maxSpeed 	27.694102210182
scalar RSUExampleScenario.node[62].veinsmobility 	totalDistance 	3399.0902976821
scalar RSUExampleScenario.node[62].veinsmobility 	totalCO2Emission 	1183.3636639622
scalar RSUExampleScenario.node[57].nic.phy80211p 	busyTime 	2.1856392294221e-06
scalar RSUExampleScenario.node[57].nic.mac1609_4 	ReceivedUnicastPackets 	0
scalar RSUExampleScenario.node[57].nic.mac1609_4 	ReceivedBroadcasts 	13
scalar RSUExampleScenario.node[57].nic.mac1609_4 	SentPackets 	1
scalar RSUExampleScenario.node[57].nic.mac1609_4 	SNIRLostPackets 	0
scalar RSUExampleScenario.node[57].nic.mac1609_4 	RXTXLostPackets 	0
scalar RSUExampleScenario.node[57].nic.mac1609_4 	TotalLostPackets 	0
scalar RSUExampleScenario.node[57].nic.mac1609_4 	DroppedPacketsInMac 	0
scalar RSUExampleScenario.node[57].nic.mac1609_4 	TooLittleTime 	0
scalar RSUExampleScenario.node[57].nic.mac1609_4 	TimesIntoBackoff 	1
scalar RSUExampleScenario.node[57].nic.mac1609_4 	SlotsBackoff 	6
scalar RSUExampleScenario.node[57].nic.mac1609_4 	NumInternalContention 	0
scalar RSUExampleScenario.node[57].nic.mac1609_4 	totalBusyTime 	0.001345
scalar RSUExampleScenario.node[57].veinsmobility 	startTime 	108
scalar RSUExampleScenario.node[57].veinsmobility 	totalTime 	570
scalar RSUExampleScenario.node[57].veinsmobility 	stopTime 	679
scalar RSUExampleScenario.node[57].veinsmobility 	minSpeed 	0
scalar RSUExampleScenario.node[57].veinsmobility 	maxSpeed 	27.772561862599
scalar RSUExampleScenario.node[57].veinsmobility 	totalDistance 	3406.5270987289
scalar RSUExampleScenario.node[57].veinsmobility 	totalCO2Emission 	1387.9316455344
scalar RSUExampleScenario.node[59].nic.phy80211p 	busyTime 	2.1933216168717e-06
scalar RSUExampleScenario.node[59].nic.mac1609_4 	ReceivedUnicastPackets 	0
scalar RSUExampleScenario.node[59].nic.mac1609_4 	ReceivedBroadcasts 	13
scalar RSUExampleScenario.node[59].nic.mac1609_4 	SentPackets 	1
scalar RSUExampleScenario.node[59].nic.mac1609_4 	SNIRLostPackets 	0
scalar RSUExampleScenario.node[59].nic.mac1609_4 	RXTXLostPackets 	0
scalar RSUExampleScenario.node[59].nic.mac1609_4 	TotalLostPackets 	0
scalar RSUExampleScenario.node[59].nic.mac1609_4 	DroppedPacketsInMac 	0
scalar RSUExampleScenario.node[59].nic.mac1609_4 	TooLittleTime 	0
scalar RSUExampleScenario.node[59].nic.mac1609_4 	TimesIntoBackoff 	1
scalar RSUExampleScenario.node[59].nic.mac1609_4 	SlotsBackoff 	2
scalar RSUExampleScenario.node[59].nic.mac1609_4 	NumInternalContention 	0
scalar RSUExampleScenario.node[59].nic.mac1609_4 	totalBusyTime 	0.001345
scalar RSUExampleScenario.node[59].veinsmobility 	startTime 	113
scalar RSUExampleScenario.node[59].veinsmobility 	totalTime 	568
scalar RSUExampleScenario.node[59].veinsmobility 	stopTime 	682
scalar RSUExampleScenario.node[59].veinsmobility 	minSpeed 	0
scalar RSUExampleScenario.node[59].veinsmobility 	maxSpeed 	27.774934776122
scalar RSUExampleScenario.node[59].veinsmobility 	totalDistance 	3399.1991927045
scalar RSUExampleScenario.node[59].veinsmobility 	totalCO2Emission 	1213.0654897919
scalar RSUExampleScenario.node[58].nic.phy80211p 	busyTime 	2.1704347826087e-06
scalar RSUExampleScenario.node[58].nic.mac1609_4 	ReceivedUnicastPackets 	0
scalar RSUExampleScenario.node[58].nic.mac1609_4 	ReceivedBroadcasts 	13
scalar RSUExampleScenario.node[58].nic.mac1609_4 	SentPackets 	1
scalar RSUExampleScenario.node[58].nic.mac1609_4 	SNIRLostPackets 	0
scalar RSUExampleScenario.node[58].nic.mac1609_4 	RXTXLostPackets 	0
scalar RSUExampleScenario.node[58].nic.mac1609_4 	TotalLostPackets 	0
scalar RSUExampleScenario.node[58].nic.mac1609_4 	DroppedPacketsInMac 	0
scalar RSUExampleScenario.node[58].nic.mac1609_4 	TooLittleTime 	0
scalar RSUExampleScenario.node[58].nic.mac1609_4 	TimesIntoBackoff 	1
scalar RSUExampleScenario.node[58].nic.mac1609_4 	SlotsBackoff 	0
scalar RSUExampleScenario.node[58].nic.mac1609_4 	NumInternalContention 	0
scalar RSUExampleScenario.node[58].nic.mac1609_4 	totalBusyTime 	0.001345
scalar RSUExampleScenario.node[58].veinsmobility 	startTime 	110
scalar RSUExampleScenario.node[58].veinsmobility 	totalTime 	574
scalar RSUExampleScenario.node[58].veinsmobility 	stopTime 	685
scalar RSUExampleScenario.node[58].veinsmobility 	minSpeed 	0
scalar RSUExampleScenario.node[58].veinsmobility 	maxSpeed 	27.775330608301
scalar RSUExampleScenario.node[58].veinsmobility 	totalDistance 	3403.5275273866
scalar RSUExampleScenario.node[58].veinsmobility 	totalCO2Emission 	1321.9738963161
scalar RSUExampleScenario.node[19].nic.phy80211p 	busyTime 	4.5574272588055e-06
scalar RSUExampleScenario.node[19].nic.mac1609_4 	ReceivedUnicastPackets 	0
scalar RSUExampleScenario.node[19].nic.mac1609_4 	ReceivedBroadcasts 	19
scalar RSUExampleScenario.node[19].nic.mac1609_4 	SentPackets 	1
scalar RSUExampleScenario.node[19].nic.mac1609_4 	SNIRLostPackets 	12
scalar RSUExampleScenario.node[19].nic.mac1609_4 	RXTXLostPackets 	1
scalar RSUExampleScenario.node[19].nic.mac1609_4 	TotalLostPackets 	13
scalar RSUExampleScenario.node[19].nic.mac1609_4 	DroppedPacketsInMac 	0
scalar RSUExampleScenario.node[19].nic.mac1609_4 	TooLittleTime 	0
scalar RSUExampleScenario.node[19].nic.mac1609_4 	TimesIntoBackoff 	1
scalar RSUExampleScenario.node[19].nic.mac1609_4 	SlotsBackoff 	7
scalar RSUExampleScenario.node[19].nic.mac1609_4 	NumInternalContention 	0
scalar RSUExampleScenario.node[19].nic.mac1609_4 	totalBusyTime 	0.002593
scalar RSUExampleScenario.node[19].veinsmobility 	startTime 	34
scalar RSUExampleScenario.node[19].veinsmobility 	totalTime 	652
scalar RSUExampleScenario.node[19].veinsmobility 	stopTime 	687
scalar RSUExampleScenario.node[19].veinsmobility 	minSpeed 	0
scalar RSUExampleScenario.node[19].veinsmobility 	maxSpeed 	27.773736851746
scalar RSUExampleScenario.node[19].veinsmobility 	totalDistance 	3400.7074644344
scalar RSUExampleScenario.node[19].veinsmobility 	totalCO2Emission 	1462.1687761772
scalar RSUExampleScenario.node[61].nic.phy80211p 	busyTime 	2.1742160278746e-06
scalar RSUExampleScenario.node[61].nic.mac1609_4 	ReceivedUnicastPackets 	0
scalar RSUExampleScenario.node[61].nic.mac1609_4 	ReceivedBroadcasts 	13
scalar RSUExampleScenario.node[61].nic.mac1609_4 	SentPackets 	1
scalar RSUExampleScenario.node[61].nic.mac1609_4 	SNIRLostPackets 	0
scalar RSUExampleScenario.node[61].nic.mac1609_4 	RXTXLostPackets 	0
scalar RSUExampleScenario.node[61].nic.mac1609_4 	TotalLostPackets 	0
scalar RSUExampleScenario.node[61].nic.mac1609_4 	DroppedPacketsInMac 	0
scalar RSUExampleScenario.node[61].nic.mac1609_4 	TooLittleTime 	0
scalar RSUExampleScenario.node[61].nic.mac1609_4 	TimesIntoBackoff 	1
scalar RSUExampleScenario.node[61].nic.mac1609_4 	SlotsBackoff 	6
scalar RSUExampleScenario.node[61].nic.mac1609_4 	NumInternalContention 	0
scalar RSUExampleScenario.node[61].nic.mac1609_4 	totalBusyTime 	0.001345
scalar RSUExampleScenario.node[61].veinsmobility 	startTime 	117
scalar RSUExampleScenario.node[61].veinsmobility 	totalTime 	573
scalar RSUExampleScenario.node[61].veinsmobility 	stopTime 	691
scalar RSUExampleScenario.node[61].veinsmobility 	minSpeed 	0
scalar RSUExampleScenario.node[61].veinsmobility 	maxSpeed 	27.752161719531
scalar RSUExampleScenario.node[61].veinsmobility 	totalDistance 	3403.4603555706
scalar RSUExampleScenario.node[61].veinsmobility 	totalCO2Emission 	1199.2003373789
scalar RSUExampleScenario.node[60].nic.phy80211p 	busyTime 	2.1554404145078e-06
scalar RSUExampleScenario.node[60].nic.mac1609_4 	ReceivedUnicastPackets 	0
scalar RSUExampleScenario.node[60].nic.mac1609_4 	ReceivedBroadcasts 	13
scalar RSUExampleScenario.node[60].nic.mac1609_4 	SentPackets 	1
scalar RSUExampleScenario.node[60].nic.mac1609_4 	SNIRLostPackets 	0
scalar RSUExampleScenario.node[60].nic.mac1609_4 	RXTXLostPackets 	0
scalar RSUExampleScenario.node[60].nic.mac1609_4 	TotalLostPackets 	0
scalar RSUExampleScenario.node[60].nic.mac1609_4 	DroppedPacketsInMac 	0
scalar RSUExampleScenario.node[60].nic.mac1609_4 	TooLittleTime 	0
scalar RSUExampleScenario.node[60].nic.mac1609_4 	TimesIntoBackoff 	1
scalar RSUExampleScenario.node[60].nic.mac1609_4 	SlotsBackoff 	6
scalar RSUExampleScenario.node[60].nic.mac1609_4 	NumInternalContention 	0
scalar RSUExampleScenario.node[60].nic.mac1609_4 	totalBusyTime 	0.001345
scalar RSUExampleScenario.node[60].veinsmobility 	startTime 	115
scalar RSUExampleScenario.node[60].veinsmobility 	totalTime 	578
scalar RSUExampleScenario.node[60].veinsmobility 	stopTime 	694
scalar RSUExampleScenario.node[60].veinsmobility 	minSpeed 	0
scalar RSUExampleScenario.node[60].veinsmobility 	maxSpeed 	27.773147699307
scalar RSUExampleScenario.node[60].veinsmobility 	totalDistance 	3405.2903852469
scalar RSUExampleScenario.node[60].veinsmobility 	totalCO2Emission 	1200.7193358949
scalar RSUExampleScenario.node[55].nic.phy80211p 	busyTime 	2.1081081081081e-06
scalar RSUExampleScenario.node[55].nic.mac1609_4 	ReceivedUnicastPackets 	0
scalar RSUExampleScenario.node[55].nic.mac1609_4 	ReceivedBroadcasts 	13
scalar RSUExampleScenario.node[55].nic.mac1609_4 	SentPackets 	1
scalar RSUExampleScenario.node[55].nic.mac1609_4 	SNIRLostPackets 	0
scalar RSUExampleScenario.node[55].nic.mac1609_4 	RXTXLostPackets 	0
scalar RSUExampleScenario.node[55].nic.mac1609_4 	TotalLostPackets 	0
scalar RSUExampleScenario.node[55].nic.mac1609_4 	DroppedPacketsInMac 	0
scalar RSUExampleScenario.node[55].nic.mac1609_4 	TooLittleTime 	0
scalar RSUExampleScenario.node[55].nic.mac1609_4 	TimesIntoBackoff 	2
scalar RSUExampleScenario.node[55].nic.mac1609_4 	SlotsBackoff 	13
scalar RSUExampleScenario.node[55].nic.mac1609_4 	NumInternalContention 	0
scalar RSUExampleScenario.node[55].nic.mac1609_4 	totalBusyTime 	0.001345
scalar RSUExampleScenario.node[55].veinsmobility 	startTime 	104
scalar RSUExampleScenario.node[55].veinsmobility 	totalTime 	591
scalar RSUExampleScenario.node[55].veinsmobility 	stopTime 	696
scalar RSUExampleScenario.node[55].veinsmobility 	minSpeed 	0
scalar RSUExampleScenario.node[55].veinsmobility 	maxSpeed 	27.75612627496
scalar RSUExampleScenario.node[55].veinsmobility 	totalDistance 	3396.3938954403
scalar RSUExampleScenario.node[55].veinsmobility 	totalCO2Emission 	1358.0051597992
scalar RSUExampleScenario.node[35].nic.phy80211p 	busyTime 	4.3704866562009e-06
scalar RSUExampleScenario.node[35].nic.mac1609_4 	ReceivedUnicastPackets 	0
scalar RSUExampleScenario.node[35].nic.mac1609_4 	ReceivedBroadcasts 	20
scalar RSUExampleScenario.node[35].nic.mac1609_4 	SentPackets 	1
scalar RSUExampleScenario.node[35].nic.mac1609_4 	SNIRLostPackets 	9
scalar RSUExampleScenario.node[35].nic.mac1609_4 	RXTXLostPackets 	0
scalar RSUExampleScenario.node[35].nic.mac1609_4 	TotalLostPackets 	9
scalar RSUExampleScenario.node[35].nic.mac1609_4 	DroppedPacketsInMac 	0
scalar RSUExampleScenario.node[35].nic.mac1609_4 	TooLittleTime 	0
scalar RSUExampleScenario.node[35].nic.mac1609_4 	TimesIntoBackoff 	2
scalar RSUExampleScenario.node[35].nic.mac1609_4 	SlotsBackoff 	9
scalar RSUExampleScenario.node[35].nic.mac1609_4 	NumInternalContention 	0
scalar RSUExampleScenario.node[35].nic.mac1609_4 	totalBusyTime 	0.002401
scalar RSUExampleScenario.node[35].veinsmobility 	startTime 	62
scalar RSUExampleScenario.node[35].veinsmobility 	totalTime 	636
scalar RSUExampleScenario.node[35].veinsmobility 	stopTime 	699
scalar RSUExampleScenario.node[35].veinsmobility 	minSpeed 	0
scalar RSUExampleScenario.node[35].veinsmobility 	maxSpeed 	16.666108937887
scalar RSUExampleScenario.node[35].veinsmobility 	totalDistance 	3256.4604655728
scalar RSUExampleScenario.node[35].veinsmobility 	totalCO2Emission 	1129.864683348
scalar RSUExampleScenario.node[36].nic.phy80211p 	busyTime 	3.9183673469388e-06
scalar RSUExampleScenario.node[36].nic.mac1609_4 	ReceivedUnicastPackets 	0
scalar RSUExampleScenario.node[36].nic.mac1609_4 	ReceivedBroadcasts 	22
scalar RSUExampleScenario.node[36].nic.mac1609_4 	SentPackets 	1
scalar RSUExampleScenario.node[36].nic.mac1609_4 	SNIRLostPackets 	4
scalar RSUExampleScenario.node[36].nic.mac1609_4 	RXTXLostPackets 	1
scalar RSUExampleScenario.node[36].nic.mac1609_4 	TotalLostPackets 	5
scalar RSUExampleScenario.node[36].nic.mac1609_4 	DroppedPacketsInMac 	0
scalar RSUExampleScenario.node[36].nic.mac1609_4 	TooLittleTime 	0
scalar RSUExampleScenario.node[36].nic.mac1609_4 	TimesIntoBackoff 	1
scalar RSUExampleScenario.node[36].nic.mac1609_4 	SlotsBackoff 	7
scalar RSUExampleScenario.node[36].nic.mac1609_4 	NumInternalContention 	0
scalar RSUExampleScenario.node[36].nic.mac1609_4 	totalBusyTime 	0.002401
scalar RSUExampleScenario.node[36].veinsmobility 	startTime 	64
scalar RSUExampleScenario.node[36].veinsmobility 	totalTime 	636
scalar RSUExampleScenario.node[36].veinsmobility 	stopTime 	701
scalar RSUExampleScenario.node[36].veinsmobility 	minSpeed 	0
scalar RSUExampleScenario.node[36].veinsmobility 	maxSpeed 	16.667889307812
scalar RSUExampleScenario.node[36].veinsmobility 	totalDistance 	3247.4600049548
scalar RSUExampleScenario.node[36].veinsmobility 	totalCO2Emission 	1125.6218157627
scalar RSUExampleScenario.node[37].nic.phy80211p 	busyTime 	3.9122257053292e-06
scalar RSUExampleScenario.node[37].nic.mac1609_4 	ReceivedUnicastPackets 	0
scalar RSUExampleScenario.node[37].nic.mac1609_4 	ReceivedBroadcasts 	23
scalar RSUExampleScenario.node[37].nic.mac1609_4 	SentPackets 	1
scalar RSUExampleScenario.node[37].nic.mac1609_4 	SNIRLostPackets 	3
scalar RSUExampleScenario.node[37].nic.mac1609_4 	RXTXLostPackets 	1
scalar RSUExampleScenario.node[37].nic.mac1609_4 	TotalLostPackets 	4
scalar RSUExampleScenario.node[37].nic.mac1609_4 	DroppedPacketsInMac 	0
scalar RSUExampleScenario.node[37].nic.mac1609_4 	TooLittleTime 	0
scalar RSUExampleScenario.node[37].nic.mac1609_4 	TimesIntoBackoff 	2
scalar RSUExampleScenario.node[37].nic.mac1609_4 	SlotsBackoff 	8
scalar RSUExampleScenario.node[37].nic.mac1609_4 	NumInternalContention 	0
scalar RSUExampleScenario.node[37].nic.mac1609_4 	totalBusyTime 	0.002401
scalar RSUExampleScenario.node[37].veinsmobility 	startTime 	66
scalar RSUExampleScenario.node[37].veinsmobility 	totalTime 	637
scalar RSUExampleScenario.node[37].veinsmobility 	stopTime 	704
scalar RSUExampleScenario.node[37].veinsmobility 	minSpeed 	0
scalar RSUExampleScenario.node[37].veinsmobility 	maxSpeed 	16.663946300251
scalar RSUExampleScenario.node[37].veinsmobility 	totalDistance 	3256.8620949748
scalar RSUExampleScenario.node[37].veinsmobility 	totalCO2Emission 	1139.787011188
scalar RSUExampleScenario.node[38].nic.phy80211p 	busyTime 	4.0626959247649e-06
scalar RSUExampleScenario.node[38].nic.mac1609_4 	ReceivedUnicastPackets 	0
scalar RSUExampleScenario.node[38].nic.mac1609_4 	ReceivedBroadcasts 	21
scalar RSUExampleScenario.node[38].nic.mac1609_4 	SentPackets 	1
scalar RSUExampleScenario.node[38].nic.mac1609_4 	SNIRLostPackets 	6
scalar RSUExampleScenario.node[38].nic.mac1609_4 	RXTXLostPackets 	0
scalar RSUExampleScenario.node[38].nic.mac1609_4 	TotalLostPackets 	6
scalar RSUExampleScenario.node[38].nic.mac1609_4 	DroppedPacketsInMac 	0
scalar RSUExampleScenario.node[38].nic.mac1609_4 	TooLittleTime 	0
scalar RSUExampleScenario.node[38].nic.mac1609_4 	TimesIntoBackoff 	1
scalar RSUExampleScenario.node[38].nic.mac1609_4 	SlotsBackoff 	1
scalar RSUExampleScenario.node[38].nic.mac1609_4 	NumInternalContention 	0
scalar RSUExampleScenario.node[38].nic.mac1609_4 	totalBusyTime 	0.002401
scalar RSUExampleScenario.node[38].veinsmobility 	startTime 	68
scalar RSUExampleScenario.node[38].veinsmobility 	totalTime 	637
scalar RSUExampleScenario.node[38].veinsmobility 	stopTime 	706
scalar RSUExampleScenario.node[38].veinsmobility 	minSpeed 	0
scalar RSUExampleScenario.node[38].veinsmobility 	maxSpeed 	16.657684223177
scalar RSUExampleScenario.node[38].veinsmobility 	totalDistance 	3248.5228528407
scalar RSUExampleScenario.node[38].veinsmobility 	totalCO2Emission 	1124.0569537272
scalar RSUExampleScenario.node[39].nic.phy80211p 	busyTime 	4.0626959247649e-06
scalar RSUExampleScenario.node[39].nic.mac1609_4 	ReceivedUnicastPackets 	0
scalar RSUExampleScenario.node[39].nic.mac1609_4 	ReceivedBroadcasts 	21
scalar RSUExampleScenario.node[39].nic.mac1609_4 	SentPackets 	1
scalar RSUExampleScenario.node[39].nic.mac1609_4 	SNIRLostPackets 	6
scalar RSUExampleScenario.node[39].nic.mac1609_4 	RXTXLostPackets 	0
scalar RSUExampleScenario.node[39].nic.mac1609_4 	TotalLostPackets 	6
scalar RSUExampleScenario.node[39].nic.mac1609_4 	DroppedPacketsInMac 	0
scalar RSUExampleScenario.node[39].nic.mac1609_4 	TooLittleTime 	0
scalar RSUExampleScenario.node[39].nic.mac1609_4 	TimesIntoBackoff 	1
scalar RSUExampleScenario.node[39].nic.mac1609_4 	SlotsBackoff 	2
scalar RSUExampleScenario.node[39].nic.mac1609_4 	NumInternalContention 	0
scalar RSUExampleScenario.node[39].nic.mac1609_4 	totalBusyTime 	0.002401
scalar RSUExampleScenario.node[39].veinsmobility 	startTime 	70
scalar RSUExampleScenario.node[39].veinsmobility 	totalTime 	637
scalar RSUExampleScenario.node[39].veinsmobility 	stopTime 	708
scalar RSUExampleScenario.node[39].veinsmobility 	minSpeed 	0
scalar RSUExampleScenario.node[39].veinsmobility 	maxSpeed 	16.668814730439
scalar RSUExampleScenario.node[39].veinsmobility 	totalDistance 	3247.2045793307
scalar RSUExampleScenario.node[39].veinsmobility 	totalCO2Emission 	1112.6253847455
scalar RSUExampleScenario.node[41].nic.phy80211p 	busyTime 	4.2197802197802e-06
scalar RSUExampleScenario.node[41].nic.mac1609_4 	ReceivedUnicastPackets 	0
scalar RSUExampleScenario.node[41].nic.mac1609_4 	ReceivedBroadcasts 	21
scalar RSUExampleScenario.node[41].nic.mac1609_4 	SentPackets 	1
scalar RSUExampleScenario.node[41].nic.mac1609_4 	SNIRLostPackets 	7
scalar RSUExampleScenario.node[41].nic.mac1609_4 	RXTXLostPackets 	0
scalar RSUExampleScenario.node[41].nic.mac1609_4 	TotalLostPackets 	7
scalar RSUExampleScenario.node[41].nic.mac1609_4 	DroppedPacketsInMac 	0
scalar RSUExampleScenario.node[41].nic.mac1609_4 	TooLittleTime 	0
scalar RSUExampleScenario.node[41].nic.mac1609_4 	TimesIntoBackoff 	2
scalar RSUExampleScenario.node[41].nic.mac1609_4 	SlotsBackoff 	6
scalar RSUExampleScenario.node[41].nic.mac1609_4 	NumInternalContention 	0
scalar RSUExampleScenario.node[41].nic.mac1609_4 	totalBusyTime 	0.002401081299
scalar RSUExampleScenario.node[41].veinsmobility 	startTime 	74
scalar RSUExampleScenario.node[41].veinsmobility 	totalTime 	636
scalar RSUExampleScenario.node[41].veinsmobility 	stopTime 	711
scalar RSUExampleScenario.node[41].veinsmobility 	minSpeed 	0
scalar RSUExampleScenario.node[41].veinsmobility 	maxSpeed 	16.66049860714
scalar RSUExampleScenario.node[41].veinsmobility 	totalDistance 	3254.3892296855
scalar RSUExampleScenario.node[41].veinsmobility 	totalCO2Emission 	1141.7333641853
scalar RSUExampleScenario.node[42].nic.phy80211p 	busyTime 	4.2197802197802e-06
scalar RSUExampleScenario.node[42].nic.mac1609_4 	ReceivedUnicastPackets 	0
scalar RSUExampleScenario.node[42].nic.mac1609_4 	ReceivedBroadcasts 	21
scalar RSUExampleScenario.node[42].nic.mac1609_4 	SentPackets 	1
scalar RSUExampleScenario.node[42].nic.mac1609_4 	SNIRLostPackets 	7
scalar RSUExampleScenario.node[42].nic.mac1609_4 	RXTXLostPackets 	0
scalar RSUExampleScenario.node[42].nic.mac1609_4 	TotalLostPackets 	7
scalar RSUExampleScenario.node[42].nic.mac1609_4 	DroppedPacketsInMac 	0
scalar RSUExampleScenario.node[42].nic.mac1609_4 	TooLittleTime 	0
scalar RSUExampleScenario.node[42].nic.mac1609_4 	TimesIntoBackoff 	1
scalar RSUExampleScenario.node[42].nic.mac1609_4 	SlotsBackoff 	3
scalar RSUExampleScenario.node[42].nic.mac1609_4 	NumInternalContention 	0
scalar RSUExampleScenario.node[42].nic.mac1609_4 	totalBusyTime 	0.002401032703
scalar RSUExampleScenario.node[42].veinsmobility 	startTime 	76
scalar RSUExampleScenario.node[42].veinsmobility 	totalTime 	636
scalar RSUExampleScenario.node[42].veinsmobility 	stopTime 	713
scalar RSUExampleScenario.node[42].veinsmobility 	minSpeed 	0
scalar RSUExampleScenario.node[42].veinsmobility 	maxSpeed 	16.661629145704
scalar RSUExampleScenario.node[42].veinsmobility 	totalDistance 	3248.1508428633
scalar RSUExampleScenario.node[42].veinsmobility 	totalCO2Emission 	1104.3533116213
scalar RSUExampleScenario.node[43].nic.phy80211p 	busyTime 	4.3568075117371e-06
scalar RSUExampleScenario.node[43].nic.mac1609_4 	ReceivedUnicastPackets 	0
scalar RSUExampleScenario.node[43].nic.mac1609_4 	ReceivedBroadcasts 	20
scalar RSUExampleScenario.node[43].nic.mac1609_4 	SentPackets 	1
scalar RSUExampleScenario.node[43].nic.mac1609_4 	SNIRLostPackets 	9
scalar RSUExampleScenario.node[43].nic.mac1609_4 	RXTXLostPackets 	0
scalar RSUExampleScenario.node[43].nic.mac1609_4 	TotalLostPackets 	9
scalar RSUExampleScenario.node[43].nic.mac1609_4 	DroppedPacketsInMac 	0
scalar RSUExampleScenario.node[43].nic.mac1609_4 	TooLittleTime 	0
scalar RSUExampleScenario.node[43].nic.mac1609_4 	TimesIntoBackoff 	2
scalar RSUExampleScenario.node[43].nic.mac1609_4 	SlotsBackoff 	1
scalar RSUExampleScenario.node[43].nic.mac1609_4 	NumInternalContention 	0
scalar RSUExampleScenario.node[43].nic.mac1609_4 	totalBusyTime 	0.002401
scalar RSUExampleScenario.node[43].veinsmobility 	startTime 	78
scalar RSUExampleScenario.node[43].veinsmobility 	totalTime 	638
scalar RSUExampleScenario.node[43].veinsmobility 	stopTime 	717
scalar RSUExampleScenario.node[43].veinsmobility 	minSpeed 	0
scalar RSUExampleScenario.node[43].veinsmobility 	maxSpeed 	16.668987043324
scalar RSUExampleScenario.node[43].veinsmobility 	totalDistance 	3256.8094366046
scalar RSUExampleScenario.node[43].veinsmobility 	totalCO2Emission 	1095.6984568188
scalar RSUExampleScenario.node[44].nic.phy80211p 	busyTime 	4.35e-06
scalar RSUExampleScenario.node[44].nic.mac1609_4 	ReceivedUnicastPackets 	0
scalar RSUExampleScenario.node[44].nic.mac1609_4 	ReceivedBroadcasts 	21
scalar RSUExampleScenario.node[44].nic.mac1609_4 	SentPackets 	1
scalar RSUExampleScenario.node[44].nic.mac1609_4 	SNIRLostPackets 	8
scalar RSUExampleScenario.node[44].nic.mac1609_4 	RXTXLostPackets 	1
scalar RSUExampleScenario.node[44].nic.mac1609_4 	TotalLostPackets 	9
scalar RSUExampleScenario.node[44].nic.mac1609_4 	DroppedPacketsInMac 	0
scalar RSUExampleScenario.node[44].nic.mac1609_4 	TooLittleTime 	0
scalar RSUExampleScenario.node[44].nic.mac1609_4 	TimesIntoBackoff 	1
scalar RSUExampleScenario.node[44].nic.mac1609_4 	SlotsBackoff 	2
scalar RSUExampleScenario.node[44].nic.mac1609_4 	NumInternalContention 	0
scalar RSUExampleScenario.node[44].nic.mac1609_4 	totalBusyTime 	0.002401
scalar RSUExampleScenario.node[44].veinsmobility 	startTime 	80
scalar RSUExampleScenario.node[44].veinsmobility 	totalTime 	639
scalar RSUExampleScenario.node[44].veinsmobility 	stopTime 	720
scalar RSUExampleScenario.node[44].veinsmobility 	minSpeed 	0
scalar RSUExampleScenario.node[44].veinsmobility 	maxSpeed 	16.669325728012
scalar RSUExampleScenario.node[44].veinsmobility 	totalDistance 	3255.4174018516
scalar RSUExampleScenario.node[44].veinsmobility 	totalCO2Emission 	1089.7171424141
scalar RSUExampleScenario.node[45].nic.phy80211p 	busyTime 	4.4929797191888e-06
scalar RSUExampleScenario.node[45].nic.mac1609_4 	ReceivedUnicastPackets 	0
scalar RSUExampleScenario.node[45].nic.mac1609_4 	ReceivedBroadcasts 	20
scalar RSUExampleScenario.node[45].nic.mac1609_4 	SentPackets 	1
scalar RSUExampleScenario.node[45].nic.mac1609_4 	SNIRLostPackets 	10
scalar RSUExampleScenario.node[45].nic.mac1609_4 	RXTXLostPackets 	0
scalar RSUExampleScenario.node[45].nic.mac1609_4 	TotalLostPackets 	10
scalar RSUExampleScenario.node[45].nic.mac1609_4 	DroppedPacketsInMac 	0
scalar RSUExampleScenario.node[45].nic.mac1609_4 	TooLittleTime 	0
scalar RSUExampleScenario.node[45].nic.mac1609_4 	TimesIntoBackoff 	2
scalar RSUExampleScenario.node[45].nic.mac1609_4 	SlotsBackoff 	9
scalar RSUExampleScenario.node[45].nic.mac1609_4 	NumInternalContention 	0
scalar RSUExampleScenario.node[45].nic.mac1609_4 	totalBusyTime 	0.002497
scalar RSUExampleScenario.node[45].veinsmobility 	startTime 	82
scalar RSUExampleScenario.node[45].veinsmobility 	totalTime 	640
scalar RSUExampleScenario.node[45].veinsmobility 	stopTime 	723
scalar RSUExampleScenario.node[45].veinsmobility 	minSpeed 	0
scalar RSUExampleScenario.node[45].veinsmobility 	maxSpeed 	16.666092897881
scalar RSUExampleScenario.node[45].veinsmobility 	totalDistance 	3252.3006491666
scalar RSUExampleScenario.node[45].veinsmobility 	totalCO2Emission 	1071.7155561119
scalar RSUExampleScenario.node[46].nic.phy80211p 	busyTime 	4.4859813084112e-06
scalar RSUExampleScenario.node[46].nic.mac1609_4 	ReceivedUnicastPackets 	0
scalar RSUExampleScenario.node[46].nic.mac1609_4 	ReceivedBroadcasts 	20
scalar RSUExampleScenario.node[46].nic.mac1609_4 	SentPackets 	1
scalar RSUExampleScenario.node[46].nic.mac1609_4 	SNIRLostPackets 	10
scalar RSUExampleScenario.node[46].nic.mac1609_4 	RXTXLostPackets 	0
scalar RSUExampleScenario.node[46].nic.mac1609_4 	TotalLostPackets 	10
scalar RSUExampleScenario.node[46].nic.mac1609_4 	DroppedPacketsInMac 	0
scalar RSUExampleScenario.node[46].nic.mac1609_4 	TooLittleTime 	0
scalar RSUExampleScenario.node[46].nic.mac1609_4 	TimesIntoBackoff 	1
scalar RSUExampleScenario.node[46].nic.mac1609_4 	SlotsBackoff 	5
scalar RSUExampleScenario.node[46].nic.mac1609_4 	NumInternalContention 	0
scalar RSUExampleScenario.node[46].nic.mac1609_4 	totalBusyTime 	0.002497
scalar RSUExampleScenario.node[46].veinsmobility 	startTime 	85
scalar RSUExampleScenario.node[46].veinsmobility 	totalTime 	641
scalar RSUExampleScenario.node[46].veinsmobility 	stopTime 	727
scalar RSUExampleScenario.node[46].veinsmobility 	minSpeed 	0
scalar RSUExampleScenario.node[46].veinsmobility 	maxSpeed 	16.669492692505
scalar RSUExampleScenario.node[46].veinsmobility 	totalDistance 	3257.080580176
scalar RSUExampleScenario.node[46].veinsmobility 	totalCO2Emission 	1084.6833566458
scalar RSUExampleScenario.node[47].nic.phy80211p 	busyTime 	4.6283048211509e-06
scalar RSUExampleScenario.node[47].nic.mac1609_4 	ReceivedUnicastPackets 	0
scalar RSUExampleScenario.node[47].nic.mac1609_4 	ReceivedBroadcasts 	19
scalar RSUExampleScenario.node[47].nic.mac1609_4 	SentPackets 	1
scalar RSUExampleScenario.node[47].nic.mac1609_4 	SNIRLostPackets 	12
scalar RSUExampleScenario.node[47].nic.mac1609_4 	RXTXLostPackets 	0
scalar RSUExampleScenario.node[47].nic.mac1609_4 	TotalLostPackets 	12
scalar RSUExampleScenario.node[47].nic.mac1609_4 	DroppedPacketsInMac 	0
scalar RSUExampleScenario.node[47].nic.mac1609_4 	TooLittleTime 	0
scalar RSUExampleScenario.node[47].nic.mac1609_4 	TimesIntoBackoff 	2
scalar RSUExampleScenario.node[47].nic.mac1609_4 	SlotsBackoff 	10
scalar RSUExampleScenario.node[47].nic.mac1609_4 	NumInternalContention 	0
scalar RSUExampleScenario.node[47].nic.mac1609_4 	totalBusyTime 	0.002497
scalar RSUExampleScenario.node[47].veinsmobility 	startTime 	87
scalar RSUExampleScenario.node[47].veinsmobility 	totalTime 	642
scalar RSUExampleScenario.node[47].veinsmobility 	stopTime 	730
scalar RSUExampleScenario.node[47].veinsmobility 	minSpeed 	0
scalar RSUExampleScenario.node[47].veinsmobility 	maxSpeed 	16.667472218053
scalar RSUExampleScenario.node[47].veinsmobility 	totalDistance 	3256.3785111348
scalar RSUExampleScenario.node[47].veinsmobility 	totalCO2Emission 	1079.8026575939
scalar RSUExampleScenario.node[48].nic.phy80211p 	busyTime 	4.7776049766719e-06
scalar RSUExampleScenario.node[48].nic.mac1609_4 	ReceivedUnicastPackets 	0
scalar RSUExampleScenario.node[48].nic.mac1609_4 	ReceivedBroadcasts 	22
scalar RSUExampleScenario.node[48].nic.mac1609_4 	SentPackets 	1
scalar RSUExampleScenario.node[48].nic.mac1609_4 	SNIRLostPackets 	10
scalar RSUExampleScenario.node[48].nic.mac1609_4 	RXTXLostPackets 	1
scalar RSUExampleScenario.node[48].nic.mac1609_4 	TotalLostPackets 	11
scalar RSUExampleScenario.node[48].nic.mac1609_4 	DroppedPacketsInMac 	0
scalar RSUExampleScenario.node[48].nic.mac1609_4 	TooLittleTime 	0
scalar RSUExampleScenario.node[48].nic.mac1609_4 	TimesIntoBackoff 	2
scalar RSUExampleScenario.node[48].nic.mac1609_4 	SlotsBackoff 	14
scalar RSUExampleScenario.node[48].nic.mac1609_4 	NumInternalContention 	0
scalar RSUExampleScenario.node[48].nic.mac1609_4 	totalBusyTime 	0.002689188912
scalar RSUExampleScenario.node[48].veinsmobility 	startTime 	89
scalar RSUExampleScenario.node[48].veinsmobility 	totalTime 	642
scalar RSUExampleScenario.node[48].veinsmobility 	stopTime 	732
scalar RSUExampleScenario.node[48].veinsmobility 	minSpeed 	0
scalar RSUExampleScenario.node[48].veinsmobility 	maxSpeed 	16.664615828246
scalar RSUExampleScenario.node[48].veinsmobility 	totalDistance 	3251.148666536
scalar RSUExampleScenario.node[48].veinsmobility 	totalCO2Emission 	1095.427551347
scalar RSUExampleScenario.node[49].nic.phy80211p 	busyTime 	5.0683229813665e-06
scalar RSUExampleScenario.node[49].nic.mac1609_4 	ReceivedUnicastPackets 	0
scalar RSUExampleScenario.node[49].nic.mac1609_4 	ReceivedBroadcasts 	20
scalar RSUExampleScenario.node[49].nic.mac1609_4 	SentPackets 	1
scalar RSUExampleScenario.node[49].nic.mac1609_4 	SNIRLostPackets 	14
scalar RSUExampleScenario.node[49].nic.mac1609_4 	RXTXLostPackets 	0
scalar RSUExampleScenario.node[49].nic.mac1609_4 	TotalLostPackets 	14
scalar RSUExampleScenario.node[49].nic.mac1609_4 	DroppedPacketsInMac 	0
scalar RSUExampleScenario.node[49].nic.mac1609_4 	TooLittleTime 	0
scalar RSUExampleScenario.node[49].nic.mac1609_4 	TimesIntoBackoff 	1
scalar RSUExampleScenario.node[49].nic.mac1609_4 	SlotsBackoff 	3
scalar RSUExampleScenario.node[49].nic.mac1609_4 	NumInternalContention 	0
scalar RSUExampleScenario.node[49].nic.mac1609_4 	totalBusyTime 	0.002689124804
scalar RSUExampleScenario.node[49].veinsmobility 	startTime 	91
scalar RSUExampleScenario.node[49].veinsmobility 	totalTime 	643
scalar RSUExampleScenario.node[49].veinsmobility 	stopTime 	735
scalar RSUExampleScenario.node[49].veinsmobility 	minSpeed 	0
scalar RSUExampleScenario.node[49].veinsmobility 	maxSpeed 	16.669857631726
scalar RSUExampleScenario.node[49].veinsmobility 	totalDistance 	3257.1956823982
scalar RSUExampleScenario.node[49].veinsmobility 	totalCO2Emission 	1137.5207704018
scalar RSUExampleScenario.node[50].nic.phy80211p 	busyTime 	5.6645962732919e-06
scalar RSUExampleScenario.node[50].nic.mac1609_4 	ReceivedUnicastPackets 	0
scalar RSUExampleScenario.node[50].nic.mac1609_4 	ReceivedBroadcasts 	24
scalar RSUExampleScenario.node[50].nic.mac1609_4 	SentPackets 	1
scalar RSUExampleScenario.node[50].nic.mac1609_4 	SNIRLostPackets 	14
scalar RSUExampleScenario.node[50].nic.mac1609_4 	RXTXLostPackets 	0
scalar RSUExampleScenario.node[50].nic.mac1609_4 	TotalLostPackets 	14
scalar RSUExampleScenario.node[50].nic.mac1609_4 	DroppedPacketsInMac 	0
scalar RSUExampleScenario.node[50].nic.mac1609_4 	TooLittleTime 	0
scalar RSUExampleScenario.node[50].nic.mac1609_4 	TimesIntoBackoff 	2
scalar RSUExampleScenario.node[50].nic.mac1609_4 	SlotsBackoff 	6
scalar RSUExampleScenario.node[50].nic.mac1609_4 	NumInternalContention 	0
scalar RSUExampleScenario.node[50].nic.mac1609_4 	totalBusyTime 	0.003073061337
scalar RSUExampleScenario.node[50].veinsmobility 	startTime 	93
scalar RSUExampleScenario.node[50].veinsmobility 	totalTime 	643
scalar RSUExampleScenario.node[50].veinsmobility 	stopTime 	737
scalar RSUExampleScenario.node[50].veinsmobility 	minSpeed 	0
scalar RSUExampleScenario.node[50].veinsmobility 	maxSpeed 	16.669751032144
scalar RSUExampleScenario.node[50].veinsmobility 	totalDistance 	3253.0703989489
scalar RSUExampleScenario.node[50].veinsmobility 	totalCO2Emission 	1103.2905663362
scalar RSUExampleScenario.node[51].nic.phy80211p 	busyTime 	5.5155279503106e-06
scalar RSUExampleScenario.node[51].nic.mac1609_4 	ReceivedUnicastPackets 	0
scalar RSUExampleScenario.node[51].nic.mac1609_4 	ReceivedBroadcasts 	25
scalar RSUExampleScenario.node[51].nic.mac1609_4 	SentPackets 	1
scalar RSUExampleScenario.node[51].nic.mac1609_4 	SNIRLostPackets 	12
scalar RSUExampleScenario.node[51].nic.mac1609_4 	RXTXLostPackets 	1
scalar RSUExampleScenario.node[51].nic.mac1609_4 	TotalLostPackets 	13
scalar RSUExampleScenario.node[51].nic.mac1609_4 	DroppedPacketsInMac 	0
scalar RSUExampleScenario.node[51].nic.mac1609_4 	TooLittleTime 	0
scalar RSUExampleScenario.node[51].nic.mac1609_4 	TimesIntoBackoff 	2
scalar RSUExampleScenario.node[51].nic.mac1609_4 	SlotsBackoff 	7
scalar RSUExampleScenario.node[51].nic.mac1609_4 	NumInternalContention 	0
scalar RSUExampleScenario.node[51].nic.mac1609_4 	totalBusyTime 	0.003073000006
scalar RSUExampleScenario.node[51].veinsmobility 	startTime 	95
scalar RSUExampleScenario.node[51].veinsmobility 	totalTime 	643
scalar RSUExampleScenario.node[51].veinsmobility 	stopTime 	739
scalar RSUExampleScenario.node[51].veinsmobility 	minSpeed 	0
scalar RSUExampleScenario.node[51].veinsmobility 	maxSpeed 	16.657076518023
scalar RSUExampleScenario.node[51].veinsmobility 	totalDistance 	3247.8899815473
scalar RSUExampleScenario.node[51].veinsmobility 	totalCO2Emission 	1115.8521645161
scalar RSUExampleScenario.node[52].nic.phy80211p 	busyTime 	5.6558139534884e-06
scalar RSUExampleScenario.node[52].nic.mac1609_4 	ReceivedUnicastPackets 	0
scalar RSUExampleScenario.node[52].nic.mac1609_4 	ReceivedBroadcasts 	24
scalar RSUExampleScenario.node[52].nic.mac1609_4 	SentPackets 	1
scalar RSUExampleScenario.node[52].nic.mac1609_4 	SNIRLostPackets 	14
scalar RSUExampleScenario.node[52].nic.mac1609_4 	RXTXLostPackets 	0
scalar RSUExampleScenario.node[52].nic.mac1609_4 	TotalLostPackets 	14
scalar RSUExampleScenario.node[52].nic.mac1609_4 	DroppedPacketsInMac 	0
scalar RSUExampleScenario.node[52].nic.mac1609_4 	TooLittleTime 	0
scalar RSUExampleScenario.node[52].nic.mac1609_4 	TimesIntoBackoff 	2
scalar RSUExampleScenario.node[52].nic.mac1609_4 	SlotsBackoff 	10
scalar RSUExampleScenario.node[52].nic.mac1609_4 	NumInternalContention 	0
scalar RSUExampleScenario.node[52].nic.mac1609_4 	totalBusyTime 	0.003073
scalar RSUExampleScenario.node[52].veinsmobility 	startTime 	97
scalar RSUExampleScenario.node[52].veinsmobility 	totalTime 	644
scalar RSUExampleScenario.node[52].veinsmobility 	stopTime 	742
scalar RSUExampleScenario.node[52].veinsmobility 	minSpeed 	0
scalar RSUExampleScenario.node[52].veinsmobility 	maxSpeed 	16.664109663796
scalar RSUExampleScenario.node[52].veinsmobility 	totalDistance 	3254.6928726343
scalar RSUExampleScenario.node[52].veinsmobility 	totalCO2Emission 	1105.9581843556
scalar RSUExampleScenario.node[53].nic.phy80211p 	busyTime 	5.6558139534884e-06
scalar RSUExampleScenario.node[53].nic.mac1609_4 	ReceivedUnicastPackets 	0
scalar RSUExampleScenario.node[53].nic.mac1609_4 	ReceivedBroadcasts 	24
[...]
scalar RSUExampleScenario.node[53].nic.mac1609_4 	totalBusyTime 	0.003073000668
scalar RSUExampleScenario.node[53].veinsmobility 	startTime 	99
scalar RSUExampleScenario.node[53].veinsmobility 	totalTime 	644
scalar RSUExampleScenario.node[53].veinsmobility 	stopTime 	744
scalar RSUExampleScenario.node[53].veinsmobility 	minSpeed 	0
scalar RSUExampleScenario.node[53].veinsmobility 	maxSpeed 	16.664388185078
scalar RSUExampleScenario.node[53].veinsmobility 	totalDistance 	3250.8852046179
scalar RSUExampleScenario.node[53].veinsmobility 	totalCO2Emission 	1110.763120169
scalar RSUExampleScenario.node[20].nic.phy80211p 	busyTime 	4.9957805907173e-06
scalar RSUExampleScenario.node[20].nic.mac1609_4 	ReceivedUnicastPackets 	0
scalar RSUExampleScenario.node[20].nic.mac1609_4 	ReceivedBroadcasts 	21
scalar RSUExampleScenario.node[20].nic.mac1609_4 	SentPackets 	1
scalar RSUExampleScenario.node[20].nic.mac1609_4 	SNIRLostPackets 	16
scalar RSUExampleScenario.node[20].nic.mac1609_4 	RXTXLostPackets 	0
scalar RSUExampleScenario.node[20].nic.mac1609_4 	TotalLostPackets 	16
scalar RSUExampleScenario.node[20].nic.mac1609_4 	DroppedPacketsInMac 	0
scalar RSUExampleScenario.node[20].nic.mac1609_4 	TooLittleTime 	0
scalar RSUExampleScenario.node[20].nic.mac1609_4 	TimesIntoBackoff 	1
scalar RSUExampleScenario.node[20].nic.mac1609_4 	SlotsBackoff 	7
scalar RSUExampleScenario.node[20].nic.mac1609_4 	NumInternalContention 	0
scalar RSUExampleScenario.node[20].nic.mac1609_4 	totalBusyTime 	0.002977
scalar RSUExampleScenario.node[20].veinsmobility 	startTime 	36
scalar RSUExampleScenario.node[20].veinsmobility 	totalTime 	710
scalar RSUExampleScenario.node[20].veinsmobility 	stopTime 	747
scalar RSUExampleScenario.node[20].veinsmobility 	minSpeed 	0
scalar RSUExampleScenario.node[20].veinsmobility 	maxSpeed 	16.667363083865
scalar RSUExampleScenario.node[20].veinsmobility 	totalDistance 	4007.0025640738
scalar RSUExampleScenario.node[20].veinsmobility 	totalCO2Emission 	1284.2040354993
scalar RSUExampleScenario.node[21].nic.phy80211p 	busyTime 	4.5842696629214e-06
scalar RSUExampleScenario.node[21].nic.mac1609_4 	ReceivedUnicastPackets 	0
scalar RSUExampleScenario.node[21].nic.mac1609_4 	ReceivedBroadcasts 	23
scalar RSUExampleScenario.node[21].nic.mac1609_4 	SentPackets 	1
scalar RSUExampleScenario.node[21].nic.mac1609_4 	SNIRLostPackets 	11
scalar RSUExampleScenario.node[21].nic.mac1609_4 	RXTXLostPackets 	0
scalar RSUExampleScenario.node[21].nic.mac1609_4 	TotalLostPackets 	11
scalar RSUExampleScenario.node[21].nic.mac1609_4 	DroppedPacketsInMac 	0
scalar RSUExampleScenario.node[21].nic.mac1609_4 	TooLittleTime 	0
scalar RSUExampleScenario.node[21].nic.mac1609_4 	TimesIntoBackoff 	1
scalar RSUExampleScenario.node[21].nic.mac1609_4 	SlotsBackoff 	6
scalar RSUExampleScenario.node[21].nic.mac1609_4 	NumInternalContention 	0
scalar RSUExampleScenario.node[21].nic.mac1609_4 	totalBusyTime 	0.002881
scalar RSUExampleScenario.node[21].veinsmobility 	startTime 	37
scalar RSUExampleScenario.node[21].veinsmobility 	totalTime 	711
scalar RSUExampleScenario.node[21].veinsmobility 	stopTime 	749
scalar RSUExampleScenario.node[21].veinsmobility 	minSpeed 	0
scalar RSUExampleScenario.node[21].veinsmobility 	maxSpeed 	16.669928023349
scalar RSUExampleScenario.node[21].veinsmobility 	totalDistance 	4004.0087521809
scalar RSUExampleScenario.node[21].veinsmobility 	totalCO2Emission 	1268.4512577324
scalar RSUExampleScenario.node[22].nic.phy80211p 	busyTime 	4.4431977559607e-06
scalar RSUExampleScenario.node[22].nic.mac1609_4 	ReceivedUnicastPackets 	0
scalar RSUExampleScenario.node[22].nic.mac1609_4 	ReceivedBroadcasts 	24
scalar RSUExampleScenario.node[22].nic.mac1609_4 	SentPackets 	1
scalar RSUExampleScenario.node[22].nic.mac1609_4 	SNIRLostPackets 	9
scalar RSUExampleScenario.node[22].nic.mac1609_4 	RXTXLostPackets 	0
scalar RSUExampleScenario.node[22].nic.mac1609_4 	TotalLostPackets 	9
scalar RSUExampleScenario.node[22].nic.mac1609_4 	DroppedPacketsInMac 	0
scalar RSUExampleScenario.node[22].nic.mac1609_4 	TooLittleTime 	0
scalar RSUExampleScenario.node[22].nic.mac1609_4 	TimesIntoBackoff 	1
scalar RSUExampleScenario.node[22].nic.mac1609_4 	SlotsBackoff 	6
scalar RSUExampleScenario.node[22].nic.mac1609_4 	NumInternalContention 	0
scalar RSUExampleScenario.node[22].nic.mac1609_4 	totalBusyTime 	0.002881
scalar RSUExampleScenario.node[22].veinsmobility 	startTime 	39
scalar RSUExampleScenario.node[22].veinsmobility 	totalTime 	712
scalar RSUExampleScenario.node[22].veinsmobility 	stopTime 	752
scalar RSUExampleScenario.node[22].veinsmobility 	minSpeed 	0
scalar RSUExampleScenario.node[22].veinsmobility 	maxSpeed 	16.669632433346
scalar RSUExampleScenario.node[22].veinsmobility 	totalDistance 	4013.3074866679
scalar RSUExampleScenario.node[22].veinsmobility 	totalCO2Emission 	1276.3591717888
scalar RSUExampleScenario.node[23].nic.phy80211p 	busyTime 	4.8335664335664e-06
scalar RSUExampleScenario.node[23].nic.mac1609_4 	ReceivedUnicastPackets 	0
scalar RSUExampleScenario.node[23].nic.mac1609_4 	ReceivedBroadcasts 	25
scalar RSUExampleScenario.node[23].nic.mac1609_4 	SentPackets 	1
scalar RSUExampleScenario.node[23].nic.mac1609_4 	SNIRLostPackets 	11
scalar RSUExampleScenario.node[23].nic.mac1609_4 	RXTXLostPackets 	0
scalar RSUExampleScenario.node[23].nic.mac1609_4 	TotalLostPackets 	11
scalar RSUExampleScenario.node[23].nic.mac1609_4 	DroppedPacketsInMac 	0
scalar RSUExampleScenario.node[23].nic.mac1609_4 	TooLittleTime 	0
scalar RSUExampleScenario.node[23].nic.mac1609_4 	TimesIntoBackoff 	2
scalar RSUExampleScenario.node[23].nic.mac1609_4 	SlotsBackoff 	8
scalar RSUExampleScenario.node[23].nic.mac1609_4 	NumInternalContention 	0
scalar RSUExampleScenario.node[23].nic.mac1609_4 	totalBusyTime 	0.003073
scalar RSUExampleScenario.node[23].veinsmobility 	startTime 	40
scalar RSUExampleScenario.node[23].veinsmobility 	totalTime 	714
scalar RSUExampleScenario.node[23].veinsmobility 	stopTime 	755
scalar RSUExampleScenario.node[23].veinsmobility 	minSpeed 	0
scalar RSUExampleScenario.node[23].veinsmobility 	maxSpeed 	16.669816072568
scalar RSUExampleScenario.node[23].veinsmobility 	totalDistance 	4007.6051598284
scalar RSUExampleScenario.node[23].veinsmobility 	totalCO2Emission 	1240.8786127135
scalar RSUExampleScenario.node[24].nic.phy80211p 	busyTime 	5.2290502793296e-06
scalar RSUExampleScenario.node[24].nic.mac1609_4 	ReceivedUnicastPackets 	0
scalar RSUExampleScenario.node[24].nic.mac1609_4 	ReceivedBroadcasts 	24
scalar RSUExampleScenario.node[24].nic.mac1609_4 	SentPackets 	1
scalar RSUExampleScenario.node[24].nic.mac1609_4 	SNIRLostPackets 	15
scalar RSUExampleScenario.node[24].nic.mac1609_4 	RXTXLostPackets 	0
scalar RSUExampleScenario.node[24].nic.mac1609_4 	TotalLostPackets 	15
scalar RSUExampleScenario.node[24].nic.mac1609_4 	DroppedPacketsInMac 	0
scalar RSUExampleScenario.node[24].nic.mac1609_4 	TooLittleTime 	0
scalar RSUExampleScenario.node[24].nic.mac1609_4 	TimesIntoBackoff 	2
scalar RSUExampleScenario.node[24].nic.mac1609_4 	SlotsBackoff 	5
scalar RSUExampleScenario.node[24].nic.mac1609_4 	NumInternalContention 	0
scalar RSUExampleScenario.node[24].nic.mac1609_4 	totalBusyTime 	0.003169
scalar RSUExampleScenario.node[24].veinsmobility 	startTime 	42
scalar RSUExampleScenario.node[24].veinsmobility 	totalTime 	715
scalar RSUExampleScenario.node[24].veinsmobility 	stopTime 	758
scalar RSUExampleScenario.node[24].veinsmobility 	minSpeed 	0
scalar RSUExampleScenario.node[24].veinsmobility 	maxSpeed 	16.668995759282
scalar RSUExampleScenario.node[24].veinsmobility 	totalDistance 	4018.3670664182
scalar RSUExampleScenario.node[24].veinsmobility 	totalCO2Emission 	1291.4776186861
scalar RSUExampleScenario.node[25].nic.phy80211p 	busyTime 	5.2290502793296e-06
scalar RSUExampleScenario.node[25].nic.mac1609_4 	ReceivedUnicastPackets 	0
scalar RSUExampleScenario.node[25].nic.mac1609_4 	ReceivedBroadcasts 	25
scalar RSUExampleScenario.node[25].nic.mac1609_4 	SentPackets 	1
scalar RSUExampleScenario.node[25].nic.mac1609_4 	SNIRLostPackets 	14
scalar RSUExampleScenario.node[25].nic.mac1609_4 	RXTXLostPackets 	0
scalar RSUExampleScenario.node[25].nic.mac1609_4 	TotalLostPackets 	14
scalar RSUExampleScenario.node[25].nic.mac1609_4 	DroppedPacketsInMac 	0
scalar RSUExampleScenario.node[25].nic.mac1609_4 	TooLittleTime 	0
scalar RSUExampleScenario.node[25].nic.mac1609_4 	TimesIntoBackoff 	2
scalar RSUExampleScenario.node[25].nic.mac1609_4 	SlotsBackoff 	4
scalar RSUExampleScenario.node[25].nic.mac1609_4 	NumInternalContention 	0
scalar RSUExampleScenario.node[25].nic.mac1609_4 	totalBusyTime 	0.003169
scalar RSUExampleScenario.node[25].veinsmobility 	startTime 	44
scalar RSUExampleScenario.node[25].veinsmobility 	totalTime 	715
scalar RSUExampleScenario.node[25].veinsmobility 	stopTime 	760
scalar RSUExampleScenario.node[25].veinsmobility 	minSpeed 	0
scalar RSUExampleScenario.node[25].veinsmobility 	maxSpeed 	16.658438384244
scalar RSUExampleScenario.node[25].veinsmobility 	totalDistance 	4006.5850025978
scalar RSUExampleScenario.node[25].veinsmobility 	totalCO2Emission 	1272.3593497153
scalar RSUExampleScenario.node[26].nic.phy80211p 	busyTime 	6.0251046025105e-06
scalar RSUExampleScenario.node[26].nic.mac1609_4 	ReceivedUnicastPackets 	0
scalar RSUExampleScenario.node[26].nic.mac1609_4 	ReceivedBroadcasts 	24
scalar RSUExampleScenario.node[26].nic.mac1609_4 	SentPackets 	1
scalar RSUExampleScenario.node[26].nic.mac1609_4 	SNIRLostPackets 	21
scalar RSUExampleScenario.node[26].nic.mac1609_4 	RXTXLostPackets 	1
scalar RSUExampleScenario.node[26].nic.mac1609_4 	TotalLostPackets 	22
scalar RSUExampleScenario.node[26].nic.mac1609_4 	DroppedPacketsInMac 	0
scalar RSUExampleScenario.node[26].nic.mac1609_4 	TooLittleTime 	0
scalar RSUExampleScenario.node[26].nic.mac1609_4 	TimesIntoBackoff 	2
scalar RSUExampleScenario.node[26].nic.mac1609_4 	SlotsBackoff 	7
scalar RSUExampleScenario.node[26].nic.mac1609_4 	NumInternalContention 	0
scalar RSUExampleScenario.node[26].nic.mac1609_4 	totalBusyTime 	0.003413055058
scalar RSUExampleScenario.node[26].veinsmobility 	startTime 	46
scalar RSUExampleScenario.node[26].veinsmobility 	totalTime 	716
scalar RSUExampleScenario.node[26].veinsmobility 	stopTime 	763
scalar RSUExampleScenario.node[26].veinsmobility 	minSpeed 	0
scalar RSUExampleScenario.node[26].veinsmobility 	maxSpeed 	16.669787777746
scalar RSUExampleScenario.node[26].veinsmobility 	totalDistance 	4019.7832190779
scalar RSUExampleScenario.node[26].veinsmobility 	totalCO2Emission 	1269.4800794935
scalar RSUExampleScenario.node[27].nic.phy80211p 	busyTime 	6.1589958158996e-06
scalar RSUExampleScenario.node[27].nic.mac1609_4 	ReceivedUnicastPackets 	0
scalar RSUExampleScenario.node[27].nic.mac1609_4 	ReceivedBroadcasts 	23
scalar RSUExampleScenario.node[27].nic.mac1609_4 	SentPackets 	1
scalar RSUExampleScenario.node[27].nic.mac1609_4 	SNIRLostPackets 	23
scalar RSUExampleScenario.node[27].nic.mac1609_4 	RXTXLostPackets 	0
scalar RSUExampleScenario.node[27].nic.mac1609_4 	TotalLostPackets 	23
scalar RSUExampleScenario.node[27].nic.mac1609_4 	DroppedPacketsInMac 	0
scalar RSUExampleScenario.node[27].nic.mac1609_4 	TooLittleTime 	0
scalar RSUExampleScenario.node[27].nic.mac1609_4 	TimesIntoBackoff 	1
scalar RSUExampleScenario.node[27].nic.mac1609_4 	SlotsBackoff 	7
scalar RSUExampleScenario.node[27].nic.mac1609_4 	NumInternalContention 	0
scalar RSUExampleScenario.node[27].nic.mac1609_4 	totalBusyTime 	0.003457
scalar RSUExampleScenario.node[27].veinsmobility 	startTime 	48
scalar RSUExampleScenario.node[27].veinsmobility 	totalTime 	716
scalar RSUExampleScenario.node[27].veinsmobility 	stopTime 	765
scalar RSUExampleScenario.node[27].veinsmobility 	minSpeed 	0
scalar RSUExampleScenario.node[27].veinsmobility 	maxSpeed 	16.668239438124
scalar RSUExampleScenario.node[27].veinsmobility 	totalDistance 	4014.1874885804
scalar RSUExampleScenario.node[27].veinsmobility 	totalCO2Emission 	1252.7722471869
scalar RSUExampleScenario.node[63].nic.phy80211p 	busyTime 	1.9024390243902e-06
scalar RSUExampleScenario.node[63].nic.mac1609_4 	ReceivedUnicastPackets 	0
scalar RSUExampleScenario.node[63].nic.mac1609_4 	ReceivedBroadcasts 	13
scalar RSUExampleScenario.node[63].nic.mac1609_4 	SentPackets 	1
scalar RSUExampleScenario.node[63].nic.mac1609_4 	SNIRLostPackets 	0
scalar RSUExampleScenario.node[63].nic.mac1609_4 	RXTXLostPackets 	0
scalar RSUExampleScenario.node[63].nic.mac1609_4 	TotalLostPackets 	0
scalar RSUExampleScenario.node[63].nic.mac1609_4 	DroppedPacketsInMac 	0
scalar RSUExampleScenario.node[63].nic.mac1609_4 	TooLittleTime 	0
scalar RSUExampleScenario.node[63].nic.mac1609_4 	TimesIntoBackoff 	1
scalar RSUExampleScenario.node[63].nic.mac1609_4 	SlotsBackoff 	1
scalar RSUExampleScenario.node[63].nic.mac1609_4 	NumInternalContention 	0
scalar RSUExampleScenario.node[63].nic.mac1609_4 	totalBusyTime 	0.001345
scalar RSUExampleScenario.node[63].veinsmobility 	startTime 	122
scalar RSUExampleScenario.node[63].veinsmobility 	totalTime 	655
scalar RSUExampleScenario.node[63].veinsmobility 	stopTime 	778
scalar RSUExampleScenario.node[63].veinsmobility 	minSpeed 	0
scalar RSUExampleScenario.node[63].veinsmobility 	maxSpeed 	16.669988848649
scalar RSUExampleScenario.node[63].veinsmobility 	totalDistance 	4016.7269368433
scalar RSUExampleScenario.node[63].veinsmobility 	totalCO2Emission 	1170.7909196411
scalar RSUExampleScenario.node[64].nic.phy80211p 	busyTime 	1.8851963746224e-06
scalar RSUExampleScenario.node[64].nic.mac1609_4 	ReceivedUnicastPackets 	0
scalar RSUExampleScenario.node[64].nic.mac1609_4 	ReceivedBroadcasts 	13
scalar RSUExampleScenario.node[64].nic.mac1609_4 	SentPackets 	1
scalar RSUExampleScenario.node[64].nic.mac1609_4 	SNIRLostPackets 	0
scalar RSUExampleScenario.node[64].nic.mac1609_4 	RXTXLostPackets 	0
scalar RSUExampleScenario.node[64].nic.mac1609_4 	TotalLostPackets 	0
scalar RSUExampleScenario.node[64].nic.mac1609_4 	DroppedPacketsInMac 	0
scalar RSUExampleScenario.node[64].nic.mac1609_4 	TooLittleTime 	0
scalar RSUExampleScenario.node[64].nic.mac1609_4 	TimesIntoBackoff 	1
scalar RSUExampleScenario.node[64].nic.mac1609_4 	SlotsBackoff 	5
scalar RSUExampleScenario.node[64].nic.mac1609_4 	NumInternalContention 	0
scalar RSUExampleScenario.node[64].nic.mac1609_4 	totalBusyTime 	0.001345
scalar RSUExampleScenario.node[64].veinsmobility 	startTime 	124
scalar RSUExampleScenario.node[64].veinsmobility 	totalTime 	661
scalar RSUExampleScenario.node[64].veinsmobility 	stopTime 	786
scalar RSUExampleScenario.node[64].veinsmobility 	minSpeed 	0
scalar RSUExampleScenario.node[64].veinsmobility 	maxSpeed 	16.668972684549
scalar RSUExampleScenario.node[64].veinsmobility 	totalDistance 	4008.5987663816
scalar RSUExampleScenario.node[64].veinsmobility 	totalCO2Emission 	1165.3502584219
scalar RSUExampleScenario.node[65].nic.phy80211p 	busyTime 	1.8008658008658e-06
scalar RSUExampleScenario.node[65].nic.mac1609_4 	ReceivedUnicastPackets 	0
scalar RSUExampleScenario.node[65].nic.mac1609_4 	ReceivedBroadcasts 	13
scalar RSUExampleScenario.node[65].nic.mac1609_4 	SentPackets 	1
scalar RSUExampleScenario.node[65].nic.mac1609_4 	SNIRLostPackets 	0
scalar RSUExampleScenario.node[65].nic.mac1609_4 	RXTXLostPackets 	0
scalar RSUExampleScenario.node[65].nic.mac1609_4 	TotalLostPackets 	0
scalar RSUExampleScenario.node[65].nic.mac1609_4 	DroppedPacketsInMac 	0
scalar RSUExampleScenario.node[65].nic.mac1609_4 	TooLittleTime 	0
scalar RSUExampleScenario.node[65].nic.mac1609_4 	TimesIntoBackoff 	2
scalar RSUExampleScenario.node[65].nic.mac1609_4 	SlotsBackoff 	7
scalar RSUExampleScenario.node[65].nic.mac1609_4 	NumInternalContention 	0
scalar RSUExampleScenario.node[65].nic.mac1609_4 	totalBusyTime 	0.001345
scalar RSUExampleScenario.node[65].veinsmobility 	startTime 	126
scalar RSUExampleScenario.node[65].veinsmobility 	totalTime 	692
scalar RSUExampleScenario.node[65].veinsmobility 	stopTime 	819
scalar RSUExampleScenario.node[65].veinsmobility 	minSpeed 	0
scalar RSUExampleScenario.node[65].veinsmobility 	maxSpeed 	16.669664742335
scalar RSUExampleScenario.node[65].veinsmobility 	totalDistance 	4015.2914174966
scalar RSUExampleScenario.node[65].veinsmobility 	totalCO2Emission 	1202.2326048755
scalar RSUExampleScenario.node[66].nic.phy80211p 	busyTime 	1.7956834532374e-06
scalar RSUExampleScenario.node[66].nic.mac1609_4 	ReceivedUnicastPackets 	0
scalar RSUExampleScenario.node[66].nic.mac1609_4 	ReceivedBroadcasts 	13
scalar RSUExampleScenario.node[66].nic.mac1609_4 	SentPackets 	1
scalar RSUExampleScenario.node[66].nic.mac1609_4 	SNIRLostPackets 	0
scalar RSUExampleScenario.node[66].nic.mac1609_4 	RXTXLostPackets 	0
scalar RSUExampleScenario.node[66].nic.mac1609_4 	TotalLostPackets 	0
scalar RSUExampleScenario.node[66].nic.mac1609_4 	DroppedPacketsInMac 	0
scalar RSUExampleScenario.node[66].nic.mac1609_4 	TooLittleTime 	0
scalar RSUExampleScenario.node[66].nic.mac1609_4 	TimesIntoBackoff 	1
scalar RSUExampleScenario.node[66].nic.mac1609_4 	SlotsBackoff 	0
scalar RSUExampleScenario.node[66].nic.mac1609_4 	NumInternalContention 	0
scalar RSUExampleScenario.node[66].nic.mac1609_4 	totalBusyTime 	0.001345
scalar RSUExampleScenario.node[66].veinsmobility 	startTime 	129
scalar RSUExampleScenario.node[66].veinsmobility 	totalTime 	694
scalar RSUExampleScenario.node[66].veinsmobility 	stopTime 	824
scalar RSUExampleScenario.node[66].veinsmobility 	minSpeed 	0
scalar RSUExampleScenario.node[66].veinsmobility 	maxSpeed 	16.663355307491
scalar RSUExampleScenario.node[66].veinsmobility 	totalDistance 	4009.6275850165
scalar RSUExampleScenario.node[66].veinsmobility 	totalCO2Emission 	1200.315339281
scalar RSUExampleScenario.node[67].nic.phy80211p 	busyTime 	1.7879656160458e-06
scalar RSUExampleScenario.node[67].nic.mac1609_4 	ReceivedUnicastPackets 	0
scalar RSUExampleScenario.node[67].nic.mac1609_4 	ReceivedBroadcasts 	13
scalar RSUExampleScenario.node[67].nic.mac1609_4 	SentPackets 	1
scalar RSUExampleScenario.node[67].nic.mac1609_4 	SNIRLostPackets 	0
scalar RSUExampleScenario.node[67].nic.mac1609_4 	RXTXLostPackets 	0
scalar RSUExampleScenario.node[67].nic.mac1609_4 	TotalLostPackets 	0
scalar RSUExampleScenario.node[67].nic.mac1609_4 	DroppedPacketsInMac 	0
scalar RSUExampleScenario.node[67].nic.mac1609_4 	TooLittleTime 	0
scalar RSUExampleScenario.node[67].nic.mac1609_4 	TimesIntoBackoff 	2
scalar RSUExampleScenario.node[67].nic.mac1609_4 	SlotsBackoff 	13
scalar RSUExampleScenario.node[67].nic.mac1609_4 	NumInternalContention 	0
scalar RSUExampleScenario.node[67].nic.mac1609_4 	totalBusyTime 	0.001345
scalar RSUExampleScenario.node[67].veinsmobility 	startTime 	131
scalar RSUExampleScenario.node[67].veinsmobility 	totalTime 	697
scalar RSUExampleScenario.node[67].veinsmobility 	stopTime 	829
scalar RSUExampleScenario.node[67].veinsmobility 	minSpeed 	0
scalar RSUExampleScenario.node[67].veinsmobility 	maxSpeed 	16.667539488709
scalar RSUExampleScenario.node[67].veinsmobility 	totalDistance 	4018.4828506539
scalar RSUExampleScenario.node[67].veinsmobility 	totalCO2Emission 	1206.1458935213
scalar RSUExampleScenario.rsu[0].nic.phy80211p 	busyTime 	2.976e-07
scalar RSUExampleScenario.rsu[0].nic.mac1609_4 	ReceivedUnicastPackets 	0
scalar RSUExampleScenario.rsu[0].nic.mac1609_4 	ReceivedBroadcasts 	23
scalar RSUExampleScenario.rsu[0].nic.mac1609_4 	SentPackets 	1
scalar RSUExampleScenario.rsu[0].nic.mac1609_4 	SNIRLostPackets 	8
scalar RSUExampleScenario.rsu[0].nic.mac1609_4 	RXTXLostPackets 	0
scalar RSUExampleScenario.rsu[0].nic.mac1609_4 	TotalLostPackets 	8
scalar RSUExampleScenario.rsu[0].nic.mac1609_4 	DroppedPacketsInMac 	0
scalar RSUExampleScenario.rsu[0].nic.mac1609_4 	TooLittleTime 	0
scalar RSUExampleScenario.rsu[0].nic.mac1609_4 	TimesIntoBackoff 	2
scalar RSUExampleScenario.rsu[0].nic.mac1609_4 	SlotsBackoff 	5
scalar RSUExampleScenario.rsu[0].nic.mac1609_4 	NumInternalContention 	0
scalar RSUExampleScenario.rsu[0].nic.mac1609_4 	totalBusyTime 	0.002689
