version 2
run debug-0-20161231-20:41:04-2081
attr configname debug
attr datetime 20161231-20:41:04
attr experiment debug
attr inifile omnetpp.ini
attr iterationvars ""
attr iterationvars2 $repetition=0
attr measurement ""
attr network RSUExampleScenario
attr processid 2081
attr repetition 0
attr replication #0
attr resultdir results
attr runnumber 0
attr seedset 0
param **.coreDebug false
param **.debug false
param *.**.nic.mac1609_4.bitrate 6Mbps
param *.**.nic.mac1609_4.txPower 20mW
param *.**.nic.mac1609_4.useServiceChannel false
param *.**.nic.phy80211p.analogueModels "xmldoc(\"config.xml\")"
param *.**.nic.phy80211p.decider "xmldoc(\"config.xml\")"
param *.**.nic.phy80211p.sensitivity -89dBm
param *.**.nic.phy80211p.thermalNoise -110dBm
param *.**.nic.phy80211p.usePropagationDelay true
param *.**.nic.phy80211p.useThermalNoise true
param *.annotations.draw false
param *.connectionManager.alpha 2.0
param *.connectionManager.carrierFrequency "5.890e9 Hz"
param *.connectionManager.pMax 12mW
param *.connectionManager.sat -89dBm
param *.connectionManager.sendDirect true
param *.manager.autoShutdown true
param *.manager.host "\"localhost\""
param *.manager.launchConfig "xmldoc(\"erlangen.launchd.xml\")"
param *.manager.margin 25
param *.manager.moduleDisplayString "\"\""
param *.manager.moduleName "\"node\""
param *.manager.moduleType "\"org.car2x.veins.nodes.Car\""
param *.manager.port 9999
param *.manager.updateInterval 1s
param *.node[*].appl.beaconInterval 1s
param *.node[*].appl.beaconPriority 3
param *.node[*].appl.dataOnSch false
param *.node[*].appl.dataPriority 2
param *.node[*].appl.debug false
param *.node[*].appl.headerLength "256 bit"
param *.node[*].appl.maxOffset 0.005s
param *.node[*].appl.sendBeacons false
param *.node[*].appl.sendData true
param *.node[*].applType "\"TraCIDemo11p\""
param *.node[*].mobilityType "\"TraCIMobility\""
param *.node[*].mobilityType.debug true
param *.node[*].veinsmobility.accidentCount 5
param *.node[*].veinsmobility.accidentDuration 43s
param *.node[*].veinsmobility.accidentStart 85s
param *.node[*].veinsmobility.x 0
param *.node[*].veinsmobility.y 0
param *.node[*].veinsmobility.z 1.895
param *.node[*].veinsmobilityType "\"org.car2x.veins.modules.mobility.traci.TraCIMobility\""
param *.node[*].veinsmobilityType.debug true
param *.obstacles.debug false
param *.obstacles.obstacles "xmldoc(\"config.xml\", \"//AnalogueModel[@type='SimpleObstacleShadowing']/obstacles\")"
param *.playgroundSizeX 2500m
param *.playgroundSizeY 2500m
param *.playgroundSizeZ 50m
param *.rsu[*].appl.beaconInterval 1s
param *.rsu[*].appl.beaconPriority 3
param *.rsu[*].appl.dataOnSch false
param *.rsu[*].appl.dataPriority 2
param *.rsu[*].appl.debug false
param *.rsu[*].appl.headerLength "256 bit"
param *.rsu[*].appl.maxOffset 0.005s
param *.rsu[*].appl.sendBeacons false
param *.rsu[*].appl.sendData true
param *.rsu[*].applType "\"TraCIDemoRSU11p\""
param *.rsu[0].mobility.x 2000
param *.rsu[0].mobility.y 2000
param *.rsu[0].mobility.z 3
param *.world.use2D false
param *.world.useTorus false

scalar RSUExampleScenario.node[0].nic.phy80211p 	busyTime 	0
scalar RSUExampleScenario.node[0].nic.mac1609_4 	ReceivedUnicastPackets 	0
scalar RSUExampleScenario.node[0].nic.mac1609_4 	ReceivedBroadcasts 	0
scalar RSUExampleScenario.node[0].nic.mac1609_4 	SentPackets 	1
scalar RSUExampleScenario.node[0].nic.mac1609_4 	SNIRLostPackets 	0
scalar RSUExampleScenario.node[0].nic.mac1609_4 	RXTXLostPackets 	0
scalar RSUExampleScenario.node[0].nic.mac1609_4 	TotalLostPackets 	0
scalar RSUExampleScenario.node[0].nic.mac1609_4 	DroppedPacketsInMac 	0
scalar RSUExampleScenario.node[0].nic.mac1609_4 	TooLittleTime 	0
scalar RSUExampleScenario.node[0].nic.mac1609_4 	TimesIntoBackoff 	1
scalar RSUExampleScenario.node[0].nic.mac1609_4 	SlotsBackoff 	3
scalar RSUExampleScenario.node[0].nic.mac1609_4 	NumInternalContention 	0
scalar RSUExampleScenario.node[0].nic.mac1609_4 	totalBusyTime 	0.000265
scalar RSUExampleScenario.node[0].veinsmobility 	startTime 	1
scalar RSUExampleScenario.node[0].veinsmobility 	totalTime 	328
scalar RSUExampleScenario.node[0].veinsmobility 	stopTime 	330
scalar RSUExampleScenario.node[0].veinsmobility 	minSpeed 	0
scalar RSUExampleScenario.node[0].veinsmobility 	maxSpeed 	27.768710480146
scalar RSUExampleScenario.node[0].veinsmobility 	totalDistance 	3393.8104210915
scalar RSUExampleScenario.node[0].veinsmobility 	totalCO2Emission 	943.9732133945
scalar RSUExampleScenario.node[2].nic.phy80211p 	busyTime 	1.2060913705584e-05
scalar RSUExampleScenario.node[2].nic.mac1609_4 	ReceivedUnicastPackets 	0
scalar RSUExampleScenario.node[2].nic.mac1609_4 	ReceivedBroadcasts 	13
scalar RSUExampleScenario.node[2].nic.mac1609_4 	SentPackets 	1
scalar RSUExampleScenario.node[2].nic.mac1609_4 	SNIRLostPackets 	5
scalar RSUExampleScenario.node[2].nic.mac1609_4 	RXTXLostPackets 	0
scalar RSUExampleScenario.node[2].nic.mac1609_4 	TotalLostPackets 	5
scalar RSUExampleScenario.node[2].nic.mac1609_4 	DroppedPacketsInMac 	0
scalar RSUExampleScenario.node[2].nic.mac1609_4 	TooLittleTime 	0
scalar RSUExampleScenario.node[2].nic.mac1609_4 	TimesIntoBackoff 	1
scalar RSUExampleScenario.node[2].nic.mac1609_4 	SlotsBackoff 	4
scalar RSUExampleScenario.node[2].nic.mac1609_4 	NumInternalContention 	0
scalar RSUExampleScenario.node[2].nic.mac1609_4 	totalBusyTime 	0.003961
scalar RSUExampleScenario.node[2].veinsmobility 	startTime 	5
scalar RSUExampleScenario.node[2].veinsmobility 	totalTime 	393
scalar RSUExampleScenario.node[2].veinsmobility 	stopTime 	399
scalar RSUExampleScenario.node[2].veinsmobility 	minSpeed 	0
scalar RSUExampleScenario.node[2].veinsmobility 	maxSpeed 	27.777677725879
scalar RSUExampleScenario.node[2].veinsmobility 	totalDistance 	3395.992734041
scalar RSUExampleScenario.node[2].veinsmobility 	totalCO2Emission 	961.41658759456
scalar RSUExampleScenario.node[3].nic.phy80211p 	busyTime 	1.0814457831325e-05
scalar RSUExampleScenario.node[3].nic.mac1609_4 	ReceivedUnicastPackets 	0
scalar RSUExampleScenario.node[3].nic.mac1609_4 	ReceivedBroadcasts 	13
scalar RSUExampleScenario.node[3].nic.mac1609_4 	SentPackets 	1
scalar RSUExampleScenario.node[3].nic.mac1609_4 	SNIRLostPackets 	4
scalar RSUExampleScenario.node[3].nic.mac1609_4 	RXTXLostPackets 	1
scalar RSUExampleScenario.node[3].nic.mac1609_4 	TotalLostPackets 	5
scalar RSUExampleScenario.node[3].nic.mac1609_4 	DroppedPacketsInMac 	0
scalar RSUExampleScenario.node[3].nic.mac1609_4 	TooLittleTime 	0
scalar RSUExampleScenario.node[3].nic.mac1609_4 	TimesIntoBackoff 	2
scalar RSUExampleScenario.node[3].nic.mac1609_4 	SlotsBackoff 	6
scalar RSUExampleScenario.node[3].nic.mac1609_4 	NumInternalContention 	0
scalar RSUExampleScenario.node[3].nic.mac1609_4 	totalBusyTime 	0.003961
scalar RSUExampleScenario.node[3].veinsmobility 	startTime 	7
scalar RSUExampleScenario.node[3].veinsmobility 	totalTime 	414
scalar RSUExampleScenario.node[3].veinsmobility 	stopTime 	422
scalar RSUExampleScenario.node[3].veinsmobility 	minSpeed 	0
scalar RSUExampleScenario.node[3].veinsmobility 	maxSpeed 	27.750909077181
scalar RSUExampleScenario.node[3].veinsmobility 	totalDistance 	3395.7960950272
scalar RSUExampleScenario.node[3].veinsmobility 	totalCO2Emission 	1059.7060026503
scalar RSUExampleScenario.node[10].nic.phy80211p 	busyTime 	1.2394366197183e-05
scalar RSUExampleScenario.node[10].nic.mac1609_4 	ReceivedUnicastPackets 	0
scalar RSUExampleScenario.node[10].nic.mac1609_4 	ReceivedBroadcasts 	12
scalar RSUExampleScenario.node[10].nic.mac1609_4 	SentPackets 	1
scalar RSUExampleScenario.node[10].nic.mac1609_4 	SNIRLostPackets 	8
scalar RSUExampleScenario.node[10].nic.mac1609_4 	RXTXLostPackets 	1
scalar RSUExampleScenario.node[10].nic.mac1609_4 	TotalLostPackets 	9
scalar RSUExampleScenario.node[10].nic.mac1609_4 	DroppedPacketsInMac 	0
scalar RSUExampleScenario.node[10].nic.mac1609_4 	TooLittleTime 	0
scalar RSUExampleScenario.node[10].nic.mac1609_4 	TimesIntoBackoff 	2
scalar RSUExampleScenario.node[10].nic.mac1609_4 	SlotsBackoff 	8
scalar RSUExampleScenario.node[10].nic.mac1609_4 	NumInternalContention 	0
scalar RSUExampleScenario.node[10].nic.mac1609_4 	totalBusyTime 	0.004225134863
scalar RSUExampleScenario.node[10].veinsmobility 	startTime 	19
scalar RSUExampleScenario.node[10].veinsmobility 	totalTime 	425
scalar RSUExampleScenario.node[10].veinsmobility 	stopTime 	445
scalar RSUExampleScenario.node[10].veinsmobility 	minSpeed 	0
scalar RSUExampleScenario.node[10].veinsmobility 	maxSpeed 	27.751222434836
scalar RSUExampleScenario.node[10].veinsmobility 	totalDistance 	3392.5559257839
scalar RSUExampleScenario.node[10].veinsmobility 	totalCO2Emission 	1029.5761485841
scalar RSUExampleScenario.node[4].nic.phy80211p 	busyTime 	8.7634854771784e-06
scalar RSUExampleScenario.node[4].nic.mac1609_4 	ReceivedUnicastPackets 	0
scalar RSUExampleScenario.node[4].nic.mac1609_4 	ReceivedBroadcasts 	12
scalar RSUExampleScenario.node[4].nic.mac1609_4 	SentPackets 	1
scalar RSUExampleScenario.node[4].nic.mac1609_4 	SNIRLostPackets 	4
scalar RSUExampleScenario.node[4].nic.mac1609_4 	RXTXLostPackets 	2
scalar RSUExampleScenario.node[4].nic.mac1609_4 	TotalLostPackets 	6
scalar RSUExampleScenario.node[4].nic.mac1609_4 	DroppedPacketsInMac 	0
scalar RSUExampleScenario.node[4].nic.mac1609_4 	TooLittleTime 	0
scalar RSUExampleScenario.node[4].nic.mac1609_4 	TimesIntoBackoff 	1
scalar RSUExampleScenario.node[4].nic.mac1609_4 	SlotsBackoff 	4
scalar RSUExampleScenario.node[4].nic.mac1609_4 	NumInternalContention 	0
scalar RSUExampleScenario.node[4].nic.mac1609_4 	totalBusyTime 	0.003961001827
scalar RSUExampleScenario.node[4].veinsmobility 	startTime 	8
scalar RSUExampleScenario.node[4].veinsmobility 	totalTime 	481
scalar RSUExampleScenario.node[4].veinsmobility 	stopTime 	490
scalar RSUExampleScenario.node[4].veinsmobility 	minSpeed 	0
scalar RSUExampleScenario.node[4].veinsmobility 	maxSpeed 	27.75182667057
scalar RSUExampleScenario.node[4].veinsmobility 	totalDistance 	3405.5424949664
scalar RSUExampleScenario.node[4].veinsmobility 	totalCO2Emission 	1199.4955351505
scalar RSUExampleScenario.node[1].nic.phy80211p 	busyTime 	8.9939879759519e-06
scalar RSUExampleScenario.node[1].nic.mac1609_4 	ReceivedUnicastPackets 	0
scalar RSUExampleScenario.node[1].nic.mac1609_4 	ReceivedBroadcasts 	13
scalar RSUExampleScenario.node[1].nic.mac1609_4 	SentPackets 	1
scalar RSUExampleScenario.node[1].nic.mac1609_4 	SNIRLostPackets 	4
scalar RSUExampleScenario.node[1].nic.mac1609_4 	RXTXLostPackets 	1
scalar RSUExampleScenario.node[1].nic.mac1609_4 	TotalLostPackets 	5
scalar RSUExampleScenario.node[1].nic.mac1609_4 	DroppedPacketsInMac 	0
scalar RSUExampleScenario.node[1].nic.mac1609_4 	TooLittleTime 	0
scalar RSUExampleScenario.node[1].nic.mac1609_4 	TimesIntoBackoff 	1
scalar RSUExampleScenario.node[1].nic.mac1609_4 	SlotsBackoff 	0
scalar RSUExampleScenario.node[1].nic.mac1609_4 	NumInternalContention 	0
scalar RSUExampleScenario.node[1].nic.mac1609_4 	totalBusyTime 	0.003961
scalar RSUExampleScenario.node[1].veinsmobility 	startTime 	3
scalar RSUExampleScenario.node[1].veinsmobility 	totalTime 	498
scalar RSUExampleScenario.node[1].veinsmobility 	stopTime 	502
scalar RSUExampleScenario.node[1].veinsmobility 	minSpeed 	0
scalar RSUExampleScenario.node[1].veinsmobility 	maxSpeed 	27.778188040318
scalar RSUExampleScenario.node[1].veinsmobility 	totalDistance 	3389.3113513131
scalar RSUExampleScenario.node[1].veinsmobility 	totalCO2Emission 	1055.7463866635
scalar RSUExampleScenario.node[5].nic.phy80211p 	busyTime 	9.8934911242604e-06
scalar RSUExampleScenario.node[5].nic.mac1609_4 	ReceivedUnicastPackets 	0
scalar RSUExampleScenario.node[5].nic.mac1609_4 	ReceivedBroadcasts 	10
scalar RSUExampleScenario.node[5].nic.mac1609_4 	SentPackets 	1
scalar RSUExampleScenario.node[5].nic.mac1609_4 	SNIRLostPackets 	9
scalar RSUExampleScenario.node[5].nic.mac1609_4 	RXTXLostPackets 	0
scalar RSUExampleScenario.node[5].nic.mac1609_4 	TotalLostPackets 	9
scalar RSUExampleScenario.node[5].nic.mac1609_4 	DroppedPacketsInMac 	0
scalar RSUExampleScenario.node[5].nic.mac1609_4 	TooLittleTime 	0
scalar RSUExampleScenario.node[5].nic.mac1609_4 	TimesIntoBackoff 	2
scalar RSUExampleScenario.node[5].nic.mac1609_4 	SlotsBackoff 	5
scalar RSUExampleScenario.node[5].nic.mac1609_4 	NumInternalContention 	0
scalar RSUExampleScenario.node[5].nic.mac1609_4 	totalBusyTime 	0.003961105257
scalar RSUExampleScenario.node[5].veinsmobility 	startTime 	10
scalar RSUExampleScenario.node[5].veinsmobility 	totalTime 	506
scalar RSUExampleScenario.node[5].veinsmobility 	stopTime 	517
scalar RSUExampleScenario.node[5].veinsmobility 	minSpeed 	0
scalar RSUExampleScenario.node[5].veinsmobility 	maxSpeed 	27.763528873604
scalar RSUExampleScenario.node[5].veinsmobility 	totalDistance 	3390.2033708126
scalar RSUExampleScenario.node[5].veinsmobility 	totalCO2Emission 	1133.7574632256
scalar RSUExampleScenario.node[6].nic.phy80211p 	busyTime 	1.0252427184466e-05
scalar RSUExampleScenario.node[6].nic.mac1609_4 	ReceivedUnicastPackets 	0
scalar RSUExampleScenario.node[6].nic.mac1609_4 	ReceivedBroadcasts 	14
scalar RSUExampleScenario.node[6].nic.mac1609_4 	SentPackets 	1
scalar RSUExampleScenario.node[6].nic.mac1609_4 	SNIRLostPackets 	6
scalar RSUExampleScenario.node[6].nic.mac1609_4 	RXTXLostPackets 	0
scalar RSUExampleScenario.node[6].nic.mac1609_4 	TotalLostPackets 	6
scalar RSUExampleScenario.node[6].nic.mac1609_4 	DroppedPacketsInMac 	0
scalar RSUExampleScenario.node[6].nic.mac1609_4 	TooLittleTime 	0
scalar RSUExampleScenario.node[6].nic.mac1609_4 	TimesIntoBackoff 	2
scalar RSUExampleScenario.node[6].nic.mac1609_4 	SlotsBackoff 	8
scalar RSUExampleScenario.node[6].nic.mac1609_4 	NumInternalContention 	0
scalar RSUExampleScenario.node[6].nic.mac1609_4 	totalBusyTime 	0.004225
scalar RSUExampleScenario.node[6].veinsmobility 	startTime 	12
scalar RSUExampleScenario.node[6].veinsmobility 	totalTime 	514
scalar RSUExampleScenario.node[6].veinsmobility 	stopTime 	527
scalar RSUExampleScenario.node[6].veinsmobility 	minSpeed 	0
scalar RSUExampleScenario.node[6].veinsmobility 	maxSpeed 	27.779343798762
scalar RSUExampleScenario.node[6].veinsmobility 	totalDistance 	3398.3089528729
scalar RSUExampleScenario.node[6].veinsmobility 	totalCO2Emission 	1027.8152455453
scalar RSUExampleScenario.node[12].nic.phy80211p 	busyTime 	1.0891944990177e-05
scalar RSUExampleScenario.node[12].nic.mac1609_4 	ReceivedUnicastPackets 	0
scalar RSUExampleScenario.node[12].nic.mac1609_4 	ReceivedBroadcasts 	12
scalar RSUExampleScenario.node[12].nic.mac1609_4 	SentPackets 	1
scalar RSUExampleScenario.node[12].nic.mac1609_4 	SNIRLostPackets 	9
scalar RSUExampleScenario.node[12].nic.mac1609_4 	RXTXLostPackets 	2
scalar RSUExampleScenario.node[12].nic.mac1609_4 	TotalLostPackets 	11
scalar RSUExampleScenario.node[12].nic.mac1609_4 	DroppedPacketsInMac 	0
scalar RSUExampleScenario.node[12].nic.mac1609_4 	TooLittleTime 	0
scalar RSUExampleScenario.node[12].nic.mac1609_4 	TimesIntoBackoff 	2
scalar RSUExampleScenario.node[12].nic.mac1609_4 	SlotsBackoff 	13
scalar RSUExampleScenario.node[12].nic.mac1609_4 	NumInternalContention 	0
scalar RSUExampleScenario.node[12].nic.mac1609_4 	totalBusyTime 	0.004489
scalar RSUExampleScenario.node[12].veinsmobility 	startTime 	23
scalar RSUExampleScenario.node[12].veinsmobility 	totalTime 	508
scalar RSUExampleScenario.node[12].veinsmobility 	stopTime 	532
scalar RSUExampleScenario.node[12].veinsmobility 	minSpeed 	0
scalar RSUExampleScenario.node[12].veinsmobility 	maxSpeed 	27.755570773735
scalar RSUExampleScenario.node[12].veinsmobility 	totalDistance 	3391.5706827795
scalar RSUExampleScenario.node[12].veinsmobility 	totalCO2Emission 	1005.1838938158
scalar RSUExampleScenario.node[7].nic.phy80211p 	busyTime 	9.1384615384615e-06
scalar RSUExampleScenario.node[7].nic.mac1609_4 	ReceivedUnicastPackets 	0
scalar RSUExampleScenario.node[7].nic.mac1609_4 	ReceivedBroadcasts 	14
scalar RSUExampleScenario.node[7].nic.mac1609_4 	SentPackets 	1
scalar RSUExampleScenario.node[7].nic.mac1609_4 	SNIRLostPackets 	4
scalar RSUExampleScenario.node[7].nic.mac1609_4 	RXTXLostPackets 	2
scalar RSUExampleScenario.node[7].nic.mac1609_4 	TotalLostPackets 	6
scalar RSUExampleScenario.node[7].nic.mac1609_4 	DroppedPacketsInMac 	0
scalar RSUExampleScenario.node[7].nic.mac1609_4 	TooLittleTime 	0
scalar RSUExampleScenario.node[7].nic.mac1609_4 	TimesIntoBackoff 	1
scalar RSUExampleScenario.node[7].nic.mac1609_4 	SlotsBackoff 	4
scalar RSUExampleScenario.node[7].nic.mac1609_4 	NumInternalContention 	0
scalar RSUExampleScenario.node[7].nic.mac1609_4 	totalBusyTime 	0.004225
scalar RSUExampleScenario.node[7].veinsmobility 	startTime 	14
scalar RSUExampleScenario.node[7].veinsmobility 	totalTime 	519
scalar RSUExampleScenario.node[7].veinsmobility 	stopTime 	534
scalar RSUExampleScenario.node[7].veinsmobility 	minSpeed 	0
scalar RSUExampleScenario.node[7].veinsmobility 	maxSpeed 	27.737601034408
scalar RSUExampleScenario.node[7].veinsmobility 	totalDistance 	3400.5084905106
scalar RSUExampleScenario.node[7].veinsmobility 	totalCO2Emission 	1090.9697207348
scalar RSUExampleScenario.node[13].nic.phy80211p 	busyTime 	1.2375e-05
scalar RSUExampleScenario.node[13].nic.mac1609_4 	ReceivedUnicastPackets 	0
scalar RSUExampleScenario.node[13].nic.mac1609_4 	ReceivedBroadcasts 	12
scalar RSUExampleScenario.node[13].nic.mac1609_4 	SentPackets 	1
scalar RSUExampleScenario.node[13].nic.mac1609_4 	SNIRLostPackets 	12
scalar RSUExampleScenario.node[13].nic.mac1609_4 	RXTXLostPackets 	0
scalar RSUExampleScenario.node[13].nic.mac1609_4 	TotalLostPackets 	12
scalar RSUExampleScenario.node[13].nic.mac1609_4 	DroppedPacketsInMac 	0
scalar RSUExampleScenario.node[13].nic.mac1609_4 	TooLittleTime 	0
scalar RSUExampleScenario.node[13].nic.mac1609_4 	TimesIntoBackoff 	1
scalar RSUExampleScenario.node[13].nic.mac1609_4 	SlotsBackoff 	6
scalar RSUExampleScenario.node[13].nic.mac1609_4 	NumInternalContention 	0
scalar RSUExampleScenario.node[13].nic.mac1609_4 	totalBusyTime 	0.004489
scalar RSUExampleScenario.node[13].veinsmobility 	startTime 	25
scalar RSUExampleScenario.node[13].veinsmobility 	totalTime 	511
scalar RSUExampleScenario.node[13].veinsmobility 	stopTime 	537
scalar RSUExampleScenario.node[13].veinsmobility 	minSpeed 	0
scalar RSUExampleScenario.node[13].veinsmobility 	maxSpeed 	27.763474684097
scalar RSUExampleScenario.node[13].veinsmobility 	totalDistance 	3402.0118895822
scalar RSUExampleScenario.node[13].veinsmobility 	totalCO2Emission 	1184.4710868441
scalar RSUExampleScenario.node[8].nic.phy80211p 	busyTime 	1.0095602294455e-05
scalar RSUExampleScenario.node[8].nic.mac1609_4 	ReceivedUnicastPackets 	0
scalar RSUExampleScenario.node[8].nic.mac1609_4 	ReceivedBroadcasts 	13
scalar RSUExampleScenario.node[8].nic.mac1609_4 	SentPackets 	1
scalar RSUExampleScenario.node[8].nic.mac1609_4 	SNIRLostPackets 	7
scalar RSUExampleScenario.node[8].nic.mac1609_4 	RXTXLostPackets 	0
scalar RSUExampleScenario.node[8].nic.mac1609_4 	TotalLostPackets 	7
scalar RSUExampleScenario.node[8].nic.mac1609_4 	DroppedPacketsInMac 	0
scalar RSUExampleScenario.node[8].nic.mac1609_4 	TooLittleTime 	0
scalar RSUExampleScenario.node[8].nic.mac1609_4 	TimesIntoBackoff 	2
scalar RSUExampleScenario.node[8].nic.mac1609_4 	SlotsBackoff 	11
scalar RSUExampleScenario.node[8].nic.mac1609_4 	NumInternalContention 	0
scalar RSUExampleScenario.node[8].nic.mac1609_4 	totalBusyTime 	0.004225029017
scalar RSUExampleScenario.node[8].veinsmobility 	startTime 	16
scalar RSUExampleScenario.node[8].veinsmobility 	totalTime 	522
scalar RSUExampleScenario.node[8].veinsmobility 	stopTime 	539
scalar RSUExampleScenario.node[8].veinsmobility 	minSpeed 	0
scalar RSUExampleScenario.node[8].veinsmobility 	maxSpeed 	27.773561144182
scalar RSUExampleScenario.node[8].veinsmobility 	totalDistance 	3401.299391577
scalar RSUExampleScenario.node[8].veinsmobility 	totalCO2Emission 	1115.1198416814
scalar RSUExampleScenario.node[14].nic.phy80211p 	busyTime 	1.3225433526012e-05
scalar RSUExampleScenario.node[14].nic.mac1609_4 	ReceivedUnicastPackets 	0
scalar RSUExampleScenario.node[14].nic.mac1609_4 	ReceivedBroadcasts 	13
scalar RSUExampleScenario.node[14].nic.mac1609_4 	SentPackets 	1
scalar RSUExampleScenario.node[14].nic.mac1609_4 	SNIRLostPackets 	13
scalar RSUExampleScenario.node[14].nic.mac1609_4 	RXTXLostPackets 	0
scalar RSUExampleScenario.node[14].nic.mac1609_4 	TotalLostPackets 	13
scalar RSUExampleScenario.node[14].nic.mac1609_4 	DroppedPacketsInMac 	0
scalar RSUExampleScenario.node[14].nic.mac1609_4 	TooLittleTime 	0
scalar RSUExampleScenario.node[14].nic.mac1609_4 	TimesIntoBackoff 	2
scalar RSUExampleScenario.node[14].nic.mac1609_4 	SlotsBackoff 	10
scalar RSUExampleScenario.node[14].nic.mac1609_4 	NumInternalContention 	0
scalar RSUExampleScenario.node[14].nic.mac1609_4 	totalBusyTime 	0.004753
scalar RSUExampleScenario.node[14].veinsmobility 	startTime 	27
scalar RSUExampleScenario.node[14].veinsmobility 	totalTime 	518
scalar RSUExampleScenario.node[14].veinsmobility 	stopTime 	546
scalar RSUExampleScenario.node[14].veinsmobility 	minSpeed 	0
scalar RSUExampleScenario.node[14].veinsmobility 	maxSpeed 	27.757903419025
scalar RSUExampleScenario.node[14].veinsmobility 	totalDistance 	3394.9023884814
scalar RSUExampleScenario.node[14].veinsmobility 	totalCO2Emission 	1119.9100653285
scalar RSUExampleScenario.node[17].nic.phy80211p 	busyTime 	1.2523719165085e-05
scalar RSUExampleScenario.node[17].nic.mac1609_4 	ReceivedUnicastPackets 	0
scalar RSUExampleScenario.node[17].nic.mac1609_4 	ReceivedBroadcasts 	13
scalar RSUExampleScenario.node[17].nic.mac1609_4 	SentPackets 	1
scalar RSUExampleScenario.node[17].nic.mac1609_4 	SNIRLostPackets 	12
scalar RSUExampleScenario.node[17].nic.mac1609_4 	RXTXLostPackets 	0
scalar RSUExampleScenario.node[17].nic.mac1609_4 	TotalLostPackets 	12
scalar RSUExampleScenario.node[17].nic.mac1609_4 	DroppedPacketsInMac 	0
scalar RSUExampleScenario.node[17].nic.mac1609_4 	TooLittleTime 	0
scalar RSUExampleScenario.node[17].nic.mac1609_4 	TimesIntoBackoff 	2
scalar RSUExampleScenario.node[17].nic.mac1609_4 	SlotsBackoff 	3
scalar RSUExampleScenario.node[17].nic.mac1609_4 	NumInternalContention 	0
scalar RSUExampleScenario.node[17].nic.mac1609_4 	totalBusyTime 	0.004753
scalar RSUExampleScenario.node[17].veinsmobility 	startTime 	31
scalar RSUExampleScenario.node[17].veinsmobility 	totalTime 	526
scalar RSUExampleScenario.node[17].veinsmobility 	stopTime 	558
scalar RSUExampleScenario.node[17].veinsmobility 	minSpeed 	0
scalar RSUExampleScenario.node[17].veinsmobility 	maxSpeed 	27.759899032293
scalar RSUExampleScenario.node[17].veinsmobility 	totalDistance 	3406.1364006252
scalar RSUExampleScenario.node[17].veinsmobility 	totalCO2Emission 	1172.7820348274
scalar RSUExampleScenario.node[18].nic.phy80211p 	busyTime 	1.2617647058824e-05
scalar RSUExampleScenario.node[18].nic.mac1609_4 	ReceivedUnicastPackets 	0
scalar RSUExampleScenario.node[18].nic.mac1609_4 	ReceivedBroadcasts 	14
scalar RSUExampleScenario.node[18].nic.mac1609_4 	SentPackets 	1
scalar RSUExampleScenario.node[18].nic.mac1609_4 	SNIRLostPackets 	12
scalar RSUExampleScenario.node[18].nic.mac1609_4 	RXTXLostPackets 	0
scalar RSUExampleScenario.node[18].nic.mac1609_4 	TotalLostPackets 	12
scalar RSUExampleScenario.node[18].nic.mac1609_4 	DroppedPacketsInMac 	0
scalar RSUExampleScenario.node[18].nic.mac1609_4 	TooLittleTime 	0
scalar RSUExampleScenario.node[18].nic.mac1609_4 	TimesIntoBackoff 	2
scalar RSUExampleScenario.node[18].nic.mac1609_4 	SlotsBackoff 	7
scalar RSUExampleScenario.node[18].nic.mac1609_4 	NumInternalContention 	0
scalar RSUExampleScenario.node[18].nic.mac1609_4 	totalBusyTime 	0.005017
scalar RSUExampleScenario.node[18].veinsmobility 	startTime 	33
scalar RSUExampleScenario.node[18].veinsmobility 	totalTime 	543
scalar RSUExampleScenario.node[18].veinsmobility 	stopTime 	577
scalar RSUExampleScenario.node[18].veinsmobility 	minSpeed 	0
scalar RSUExampleScenario.node[18].veinsmobility 	maxSpeed 	27.742962762248
scalar RSUExampleScenario.node[18].veinsmobility 	totalDistance 	3402.1485518429
scalar RSUExampleScenario.node[18].veinsmobility 	totalCO2Emission 	1237.9581959856
scalar RSUExampleScenario.node[11].nic.phy80211p 	busyTime 	9.91771019678e-06
scalar RSUExampleScenario.node[11].nic.mac1609_4 	ReceivedUnicastPackets 	0
scalar RSUExampleScenario.node[11].nic.mac1609_4 	ReceivedBroadcasts 	12
scalar RSUExampleScenario.node[11].nic.mac1609_4 	SentPackets 	1
scalar RSUExampleScenario.node[11].nic.mac1609_4 	SNIRLostPackets 	9
scalar RSUExampleScenario.node[11].nic.mac1609_4 	RXTXLostPackets 	0
scalar RSUExampleScenario.node[11].nic.mac1609_4 	TotalLostPackets 	9
scalar RSUExampleScenario.node[11].nic.mac1609_4 	DroppedPacketsInMac 	0
scalar RSUExampleScenario.node[11].nic.mac1609_4 	TooLittleTime 	0
scalar RSUExampleScenario.node[11].nic.mac1609_4 	TimesIntoBackoff 	1
scalar RSUExampleScenario.node[11].nic.mac1609_4 	SlotsBackoff 	6
scalar RSUExampleScenario.node[11].nic.mac1609_4 	NumInternalContention 	0
scalar RSUExampleScenario.node[11].nic.mac1609_4 	totalBusyTime 	0.004225204639
scalar RSUExampleScenario.node[11].veinsmobility 	startTime 	20
scalar RSUExampleScenario.node[11].veinsmobility 	totalTime 	558
scalar RSUExampleScenario.node[11].veinsmobility 	stopTime 	579
scalar RSUExampleScenario.node[11].veinsmobility 	minSpeed 	0
scalar RSUExampleScenario.node[11].veinsmobility 	maxSpeed 	27.749026262658
scalar RSUExampleScenario.node[11].veinsmobility 	totalDistance 	3390.7651983098
scalar RSUExampleScenario.node[11].veinsmobility 	totalCO2Emission 	1235.2244967678
scalar RSUExampleScenario.node[9].nic.phy80211p 	busyTime 	8.8778761061947e-06
scalar RSUExampleScenario.node[9].nic.mac1609_4 	ReceivedUnicastPackets 	0
scalar RSUExampleScenario.node[9].nic.mac1609_4 	ReceivedBroadcasts 	13
scalar RSUExampleScenario.node[9].nic.mac1609_4 	SentPackets 	1
scalar RSUExampleScenario.node[9].nic.mac1609_4 	SNIRLostPackets 	6
scalar RSUExampleScenario.node[9].nic.mac1609_4 	RXTXLostPackets 	1
scalar RSUExampleScenario.node[9].nic.mac1609_4 	TotalLostPackets 	7
scalar RSUExampleScenario.node[9].nic.mac1609_4 	DroppedPacketsInMac 	0
scalar RSUExampleScenario.node[9].nic.mac1609_4 	TooLittleTime 	0
scalar RSUExampleScenario.node[9].nic.mac1609_4 	TimesIntoBackoff 	2
scalar RSUExampleScenario.node[9].nic.mac1609_4 	SlotsBackoff 	12
scalar RSUExampleScenario.node[9].nic.mac1609_4 	NumInternalContention 	0
scalar RSUExampleScenario.node[9].nic.mac1609_4 	totalBusyTime 	0.004225076071
scalar RSUExampleScenario.node[9].veinsmobility 	startTime 	17
scalar RSUExampleScenario.node[9].veinsmobility 	totalTime 	564
scalar RSUExampleScenario.node[9].veinsmobility 	stopTime 	582
scalar RSUExampleScenario.node[9].veinsmobility 	minSpeed 	0
scalar RSUExampleScenario.node[9].veinsmobility 	maxSpeed 	27.76204985423
scalar RSUExampleScenario.node[9].veinsmobility 	totalDistance 	3408.5988451578
scalar RSUExampleScenario.node[9].veinsmobility 	totalCO2Emission 	1314.2700286629
scalar RSUExampleScenario.node[33].nic.phy80211p 	busyTime 	1.4721189591078e-05
scalar RSUExampleScenario.node[33].nic.mac1609_4 	ReceivedUnicastPackets 	0
scalar RSUExampleScenario.node[33].nic.mac1609_4 	ReceivedBroadcasts 	17
scalar RSUExampleScenario.node[33].nic.mac1609_4 	SentPackets 	1
scalar RSUExampleScenario.node[33].nic.mac1609_4 	SNIRLostPackets 	13
scalar RSUExampleScenario.node[33].nic.mac1609_4 	RXTXLostPackets 	0
scalar RSUExampleScenario.node[33].nic.mac1609_4 	TotalLostPackets 	13
scalar RSUExampleScenario.node[33].nic.mac1609_4 	DroppedPacketsInMac 	0
scalar RSUExampleScenario.node[33].nic.mac1609_4 	TooLittleTime 	0
scalar RSUExampleScenario.node[33].nic.mac1609_4 	TimesIntoBackoff 	2
scalar RSUExampleScenario.node[33].nic.mac1609_4 	SlotsBackoff 	7
scalar RSUExampleScenario.node[33].nic.mac1609_4 	NumInternalContention 	0
scalar RSUExampleScenario.node[33].nic.mac1609_4 	totalBusyTime 	0.005545109382
scalar RSUExampleScenario.node[33].veinsmobility 	startTime 	60
scalar RSUExampleScenario.node[33].veinsmobility 	totalTime 	537
scalar RSUExampleScenario.node[33].veinsmobility 	stopTime 	598
scalar RSUExampleScenario.node[33].veinsmobility 	minSpeed 	0
scalar RSUExampleScenario.node[33].veinsmobility 	maxSpeed 	27.76664303978
scalar RSUExampleScenario.node[33].veinsmobility 	totalDistance 	3402.8926638621
scalar RSUExampleScenario.node[33].veinsmobility 	totalCO2Emission 	1376.7990941358
scalar RSUExampleScenario.node[62].nic.phy80211p 	busyTime 	1.5348837209302e-05
scalar RSUExampleScenario.node[62].nic.mac1609_4 	ReceivedUnicastPackets 	0
scalar RSUExampleScenario.node[62].nic.mac1609_4 	ReceivedBroadcasts 	16
scalar RSUExampleScenario.node[62].nic.mac1609_4 	SentPackets 	1
scalar RSUExampleScenario.node[62].nic.mac1609_4 	SNIRLostPackets 	14
scalar RSUExampleScenario.node[62].nic.mac1609_4 	RXTXLostPackets 	0
scalar RSUExampleScenario.node[62].nic.mac1609_4 	TotalLostPackets 	14
scalar RSUExampleScenario.node[62].nic.mac1609_4 	DroppedPacketsInMac 	0
scalar RSUExampleScenario.node[62].nic.mac1609_4 	TooLittleTime 	0
scalar RSUExampleScenario.node[62].nic.mac1609_4 	TimesIntoBackoff 	2
scalar RSUExampleScenario.node[62].nic.mac1609_4 	SlotsBackoff 	4
scalar RSUExampleScenario.node[62].nic.mac1609_4 	NumInternalContention 	0
scalar RSUExampleScenario.node[62].nic.mac1609_4 	totalBusyTime 	0.005809000006
scalar RSUExampleScenario.node[62].veinsmobility 	startTime 	126
scalar RSUExampleScenario.node[62].veinsmobility 	totalTime 	515
scalar RSUExampleScenario.node[62].veinsmobility 	stopTime 	642
scalar RSUExampleScenario.node[62].veinsmobility 	minSpeed 	0
scalar RSUExampleScenario.node[62].veinsmobility 	maxSpeed 	26.415280547616
scalar RSUExampleScenario.node[62].veinsmobility 	totalDistance 	3400.5926767978
scalar RSUExampleScenario.node[62].veinsmobility 	totalCO2Emission 	1300.8093345366
scalar RSUExampleScenario.node[51].nic.phy80211p 	busyTime 	9.6526508226691e-06
scalar RSUExampleScenario.node[51].nic.mac1609_4 	ReceivedUnicastPackets 	0
scalar RSUExampleScenario.node[51].nic.mac1609_4 	ReceivedBroadcasts 	12
scalar RSUExampleScenario.node[51].nic.mac1609_4 	SentPackets 	1
scalar RSUExampleScenario.node[51].nic.mac1609_4 	SNIRLostPackets 	8
scalar RSUExampleScenario.node[51].nic.mac1609_4 	RXTXLostPackets 	0
scalar RSUExampleScenario.node[51].nic.mac1609_4 	TotalLostPackets 	8
scalar RSUExampleScenario.node[51].nic.mac1609_4 	DroppedPacketsInMac 	0
scalar RSUExampleScenario.node[51].nic.mac1609_4 	TooLittleTime 	0
scalar RSUExampleScenario.node[51].nic.mac1609_4 	TimesIntoBackoff 	2
scalar RSUExampleScenario.node[51].nic.mac1609_4 	SlotsBackoff 	10
scalar RSUExampleScenario.node[51].nic.mac1609_4 	NumInternalContention 	0
scalar RSUExampleScenario.node[51].nic.mac1609_4 	totalBusyTime 	0.004225
scalar RSUExampleScenario.node[51].veinsmobility 	startTime 	101
scalar RSUExampleScenario.node[51].veinsmobility 	totalTime 	546
scalar RSUExampleScenario.node[51].veinsmobility 	stopTime 	648
scalar RSUExampleScenario.node[51].veinsmobility 	minSpeed 	0
scalar RSUExampleScenario.node[51].veinsmobility 	maxSpeed 	27.777383007313
scalar RSUExampleScenario.node[51].veinsmobility 	totalDistance 	3406.4359165713
scalar RSUExampleScenario.node[51].veinsmobility 	totalCO2Emission 	1283.0195052394
scalar RSUExampleScenario.node[19].nic.phy80211p 	busyTime 	1.1142857142857e-05
scalar RSUExampleScenario.node[19].nic.mac1609_4 	ReceivedUnicastPackets 	0
scalar RSUExampleScenario.node[19].nic.mac1609_4 	ReceivedBroadcasts 	11
scalar RSUExampleScenario.node[19].nic.mac1609_4 	SentPackets 	1
scalar RSUExampleScenario.node[19].nic.mac1609_4 	SNIRLostPackets 	15
scalar RSUExampleScenario.node[19].nic.mac1609_4 	RXTXLostPackets 	0
scalar RSUExampleScenario.node[19].nic.mac1609_4 	TotalLostPackets 	15
scalar RSUExampleScenario.node[19].nic.mac1609_4 	DroppedPacketsInMac 	0
scalar RSUExampleScenario.node[19].nic.mac1609_4 	TooLittleTime 	0
scalar RSUExampleScenario.node[19].nic.mac1609_4 	TimesIntoBackoff 	2
scalar RSUExampleScenario.node[19].nic.mac1609_4 	SlotsBackoff 	10
scalar RSUExampleScenario.node[19].nic.mac1609_4 	NumInternalContention 	0
scalar RSUExampleScenario.node[19].nic.mac1609_4 	totalBusyTime 	0.004753
scalar RSUExampleScenario.node[19].veinsmobility 	startTime 	34
scalar RSUExampleScenario.node[19].veinsmobility 	totalTime 	615
scalar RSUExampleScenario.node[19].veinsmobility 	stopTime 	650
scalar RSUExampleScenario.node[19].veinsmobility 	minSpeed 	0
scalar RSUExampleScenario.node[19].veinsmobility 	maxSpeed 	27.77800252744
scalar RSUExampleScenario.node[19].veinsmobility 	totalDistance 	3397.794705136
scalar RSUExampleScenario.node[19].veinsmobility 	totalCO2Emission 	1381.8043269493
scalar RSUExampleScenario.node[16].nic.phy80211p 	busyTime 	1.1017656500803e-05
scalar RSUExampleScenario.node[16].nic.mac1609_4 	ReceivedUnicastPackets 	0
scalar RSUExampleScenario.node[16].nic.mac1609_4 	ReceivedBroadcasts 	12
scalar RSUExampleScenario.node[16].nic.mac1609_4 	SentPackets 	1
scalar RSUExampleScenario.node[16].nic.mac1609_4 	SNIRLostPackets 	14
scalar RSUExampleScenario.node[16].nic.mac1609_4 	RXTXLostPackets 	0
scalar RSUExampleScenario.node[16].nic.mac1609_4 	TotalLostPackets 	14
scalar RSUExampleScenario.node[16].nic.mac1609_4 	DroppedPacketsInMac 	0
scalar RSUExampleScenario.node[16].nic.mac1609_4 	TooLittleTime 	0
scalar RSUExampleScenario.node[16].nic.mac1609_4 	TimesIntoBackoff 	2
scalar RSUExampleScenario.node[16].nic.mac1609_4 	SlotsBackoff 	9
scalar RSUExampleScenario.node[16].nic.mac1609_4 	NumInternalContention 	0
scalar RSUExampleScenario.node[16].nic.mac1609_4 	totalBusyTime 	0.004753
scalar RSUExampleScenario.node[16].veinsmobility 	startTime 	30
scalar RSUExampleScenario.node[16].veinsmobility 	totalTime 	622
scalar RSUExampleScenario.node[16].veinsmobility 	stopTime 	653
scalar RSUExampleScenario.node[16].veinsmobility 	minSpeed 	0
scalar RSUExampleScenario.node[16].veinsmobility 	maxSpeed 	27.715720625184
scalar RSUExampleScenario.node[16].veinsmobility 	totalDistance 	3408.2189943998
scalar RSUExampleScenario.node[16].veinsmobility 	totalCO2Emission 	1411.4255777652
scalar RSUExampleScenario.node[54].nic.phy80211p 	busyTime 	1.0135283363803e-05
scalar RSUExampleScenario.node[54].nic.mac1609_4 	ReceivedUnicastPackets 	0
scalar RSUExampleScenario.node[54].nic.mac1609_4 	ReceivedBroadcasts 	15
scalar RSUExampleScenario.node[54].nic.mac1609_4 	SentPackets 	1
scalar RSUExampleScenario.node[54].nic.mac1609_4 	SNIRLostPackets 	6
scalar RSUExampleScenario.node[54].nic.mac1609_4 	RXTXLostPackets 	0
scalar RSUExampleScenario.node[54].nic.mac1609_4 	TotalLostPackets 	6
scalar RSUExampleScenario.node[54].nic.mac1609_4 	DroppedPacketsInMac 	0
scalar RSUExampleScenario.node[54].nic.mac1609_4 	TooLittleTime 	0
scalar RSUExampleScenario.node[54].nic.mac1609_4 	TimesIntoBackoff 	2
scalar RSUExampleScenario.node[54].nic.mac1609_4 	SlotsBackoff 	3
scalar RSUExampleScenario.node[54].nic.mac1609_4 	NumInternalContention 	0
scalar RSUExampleScenario.node[54].nic.mac1609_4 	totalBusyTime 	0.004489000063
scalar RSUExampleScenario.node[54].veinsmobility 	startTime 	108
scalar RSUExampleScenario.node[54].veinsmobility 	totalTime 	546
scalar RSUExampleScenario.node[54].veinsmobility 	stopTime 	655
scalar RSUExampleScenario.node[54].veinsmobility 	minSpeed 	0
scalar RSUExampleScenario.node[54].veinsmobility 	maxSpeed 	27.755504409652
scalar RSUExampleScenario.node[54].veinsmobility 	totalDistance 	3394.5765822196
scalar RSUExampleScenario.node[54].veinsmobility 	totalCO2Emission 	1316.3552097156
scalar RSUExampleScenario.node[15].nic.phy80211p 	busyTime 	1.0912559618442e-05
scalar RSUExampleScenario.node[15].nic.mac1609_4 	ReceivedUnicastPackets 	0
scalar RSUExampleScenario.node[15].nic.mac1609_4 	ReceivedBroadcasts 	12
scalar RSUExampleScenario.node[15].nic.mac1609_4 	SentPackets 	1
scalar RSUExampleScenario.node[15].nic.mac1609_4 	SNIRLostPackets 	14
scalar RSUExampleScenario.node[15].nic.mac1609_4 	RXTXLostPackets 	0
scalar RSUExampleScenario.node[15].nic.mac1609_4 	TotalLostPackets 	14
scalar RSUExampleScenario.node[15].nic.mac1609_4 	DroppedPacketsInMac 	0
scalar RSUExampleScenario.node[15].nic.mac1609_4 	TooLittleTime 	0
scalar RSUExampleScenario.node[15].nic.mac1609_4 	TimesIntoBackoff 	2
scalar RSUExampleScenario.node[15].nic.mac1609_4 	SlotsBackoff 	10
scalar RSUExampleScenario.node[15].nic.mac1609_4 	NumInternalContention 	0
scalar RSUExampleScenario.node[15].nic.mac1609_4 	totalBusyTime 	0.004753
scalar RSUExampleScenario.node[15].veinsmobility 	startTime 	28
scalar RSUExampleScenario.node[15].veinsmobility 	totalTime 	628
scalar RSUExampleScenario.node[15].veinsmobility 	stopTime 	657
scalar RSUExampleScenario.node[15].veinsmobility 	minSpeed 	0
scalar RSUExampleScenario.node[15].veinsmobility 	maxSpeed 	27.750359571008
scalar RSUExampleScenario.node[15].veinsmobility 	totalDistance 	3397.8564706676
scalar RSUExampleScenario.node[15].veinsmobility 	totalCO2Emission 	1339.6864840515
scalar RSUExampleScenario.node[39].nic.phy80211p 	busyTime 	1.8408163265306e-05
scalar RSUExampleScenario.node[39].nic.mac1609_4 	ReceivedUnicastPackets 	0
scalar RSUExampleScenario.node[39].nic.mac1609_4 	ReceivedBroadcasts 	25
scalar RSUExampleScenario.node[39].nic.mac1609_4 	SentPackets 	1
scalar RSUExampleScenario.node[39].nic.mac1609_4 	SNIRLostPackets 	16
scalar RSUExampleScenario.node[39].nic.mac1609_4 	RXTXLostPackets 	1
scalar RSUExampleScenario.node[39].nic.mac1609_4 	TotalLostPackets 	17
scalar RSUExampleScenario.node[39].nic.mac1609_4 	DroppedPacketsInMac 	0
scalar RSUExampleScenario.node[39].nic.mac1609_4 	TooLittleTime 	0
scalar RSUExampleScenario.node[39].nic.mac1609_4 	TimesIntoBackoff 	2
scalar RSUExampleScenario.node[39].nic.mac1609_4 	SlotsBackoff 	7
scalar RSUExampleScenario.node[39].nic.mac1609_4 	NumInternalContention 	0
scalar RSUExampleScenario.node[39].nic.mac1609_4 	totalBusyTime 	0.00792106017
scalar RSUExampleScenario.node[39].veinsmobility 	startTime 	72
scalar RSUExampleScenario.node[39].veinsmobility 	totalTime 	587
scalar RSUExampleScenario.node[39].veinsmobility 	stopTime 	660
scalar RSUExampleScenario.node[39].veinsmobility 	minSpeed 	0
scalar RSUExampleScenario.node[39].veinsmobility 	maxSpeed 	27.730834300201
scalar RSUExampleScenario.node[39].veinsmobility 	totalDistance 	3400.8629494061
scalar RSUExampleScenario.node[39].veinsmobility 	totalCO2Emission 	1434.0396807485
scalar RSUExampleScenario.node[59].nic.phy80211p 	busyTime 	1.0464864864865e-05
scalar RSUExampleScenario.node[59].nic.mac1609_4 	ReceivedUnicastPackets 	0
scalar RSUExampleScenario.node[59].nic.mac1609_4 	ReceivedBroadcasts 	15
scalar RSUExampleScenario.node[59].nic.mac1609_4 	SentPackets 	1
scalar RSUExampleScenario.node[59].nic.mac1609_4 	SNIRLostPackets 	7
scalar RSUExampleScenario.node[59].nic.mac1609_4 	RXTXLostPackets 	0
scalar RSUExampleScenario.node[59].nic.mac1609_4 	TotalLostPackets 	7
scalar RSUExampleScenario.node[59].nic.mac1609_4 	DroppedPacketsInMac 	0
scalar RSUExampleScenario.node[59].nic.mac1609_4 	TooLittleTime 	0
scalar RSUExampleScenario.node[59].nic.mac1609_4 	TimesIntoBackoff 	1
scalar RSUExampleScenario.node[59].nic.mac1609_4 	SlotsBackoff 	4
scalar RSUExampleScenario.node[59].nic.mac1609_4 	NumInternalContention 	0
scalar RSUExampleScenario.node[59].nic.mac1609_4 	totalBusyTime 	0.004753
scalar RSUExampleScenario.node[59].veinsmobility 	startTime 	119
scalar RSUExampleScenario.node[59].veinsmobility 	totalTime 	554
scalar RSUExampleScenario.node[59].veinsmobility 	stopTime 	674
scalar RSUExampleScenario.node[59].veinsmobility 	minSpeed 	0
scalar RSUExampleScenario.node[59].veinsmobility 	maxSpeed 	27.735240064124
scalar RSUExampleScenario.node[59].veinsmobility 	totalDistance 	3403.2189718261
scalar RSUExampleScenario.node[59].veinsmobility 	totalCO2Emission 	1351.7513665101
scalar RSUExampleScenario.node[55].nic.phy80211p 	busyTime 	9.3286219081272e-06
scalar RSUExampleScenario.node[55].nic.mac1609_4 	ReceivedUnicastPackets 	0
scalar RSUExampleScenario.node[55].nic.mac1609_4 	ReceivedBroadcasts 	15
scalar RSUExampleScenario.node[55].nic.mac1609_4 	SentPackets 	1
scalar RSUExampleScenario.node[55].nic.mac1609_4 	SNIRLostPackets 	5
scalar RSUExampleScenario.node[55].nic.mac1609_4 	RXTXLostPackets 	1
scalar RSUExampleScenario.node[55].nic.mac1609_4 	TotalLostPackets 	6
scalar RSUExampleScenario.node[55].nic.mac1609_4 	DroppedPacketsInMac 	0
scalar RSUExampleScenario.node[55].nic.mac1609_4 	TooLittleTime 	0
scalar RSUExampleScenario.node[55].nic.mac1609_4 	TimesIntoBackoff 	2
scalar RSUExampleScenario.node[55].nic.mac1609_4 	SlotsBackoff 	3
scalar RSUExampleScenario.node[55].nic.mac1609_4 	NumInternalContention 	0
scalar RSUExampleScenario.node[55].nic.mac1609_4 	totalBusyTime 	0.004489000062
scalar RSUExampleScenario.node[55].veinsmobility 	startTime 	110
scalar RSUExampleScenario.node[55].veinsmobility 	totalTime 	565
scalar RSUExampleScenario.node[55].veinsmobility 	stopTime 	676
scalar RSUExampleScenario.node[55].veinsmobility 	minSpeed 	0
scalar RSUExampleScenario.node[55].veinsmobility 	maxSpeed 	27.767485805843
scalar RSUExampleScenario.node[55].veinsmobility 	totalDistance 	3395.3716308563
scalar RSUExampleScenario.node[55].veinsmobility 	totalCO2Emission 	1329.1602330744
scalar RSUExampleScenario.node[67].nic.phy80211p 	busyTime 	1.9031423290203e-05
scalar RSUExampleScenario.node[67].nic.mac1609_4 	ReceivedUnicastPackets 	0
scalar RSUExampleScenario.node[67].nic.mac1609_4 	ReceivedBroadcasts 	12
scalar RSUExampleScenario.node[67].nic.mac1609_4 	SentPackets 	1
scalar RSUExampleScenario.node[67].nic.mac1609_4 	SNIRLostPackets 	27
scalar RSUExampleScenario.node[67].nic.mac1609_4 	RXTXLostPackets 	2
scalar RSUExampleScenario.node[67].nic.mac1609_4 	TotalLostPackets 	29
scalar RSUExampleScenario.node[67].nic.mac1609_4 	DroppedPacketsInMac 	0
scalar RSUExampleScenario.node[67].nic.mac1609_4 	TooLittleTime 	0
scalar RSUExampleScenario.node[67].nic.mac1609_4 	TimesIntoBackoff 	2
scalar RSUExampleScenario.node[67].nic.mac1609_4 	SlotsBackoff 	5
scalar RSUExampleScenario.node[67].nic.mac1609_4 	NumInternalContention 	0
scalar RSUExampleScenario.node[67].nic.mac1609_4 	totalBusyTime 	0.006073
scalar RSUExampleScenario.node[67].veinsmobility 	startTime 	138
scalar RSUExampleScenario.node[67].veinsmobility 	totalTime 	540
scalar RSUExampleScenario.node[67].veinsmobility 	stopTime 	679
scalar RSUExampleScenario.node[67].veinsmobility 	minSpeed 	0
scalar RSUExampleScenario.node[67].veinsmobility 	maxSpeed 	26.938212578008
scalar RSUExampleScenario.node[67].veinsmobility 	totalDistance 	3404.3264756504
scalar RSUExampleScenario.node[67].veinsmobility 	totalCO2Emission 	1308.5713694487
scalar RSUExampleScenario.node[57].nic.phy80211p 	busyTime 	8.8465608465608e-06
scalar RSUExampleScenario.node[57].nic.mac1609_4 	ReceivedUnicastPackets 	0
scalar RSUExampleScenario.node[57].nic.mac1609_4 	ReceivedBroadcasts 	14
scalar RSUExampleScenario.node[57].nic.mac1609_4 	SentPackets 	1
scalar RSUExampleScenario.node[57].nic.mac1609_4 	SNIRLostPackets 	5
scalar RSUExampleScenario.node[57].nic.mac1609_4 	RXTXLostPackets 	2
scalar RSUExampleScenario.node[57].nic.mac1609_4 	TotalLostPackets 	7
scalar RSUExampleScenario.node[57].nic.mac1609_4 	DroppedPacketsInMac 	0
scalar RSUExampleScenario.node[57].nic.mac1609_4 	TooLittleTime 	0
scalar RSUExampleScenario.node[57].nic.mac1609_4 	TimesIntoBackoff 	2
scalar RSUExampleScenario.node[57].nic.mac1609_4 	SlotsBackoff 	5
scalar RSUExampleScenario.node[57].nic.mac1609_4 	NumInternalContention 	0
scalar RSUExampleScenario.node[57].nic.mac1609_4 	totalBusyTime 	0.004489091605
scalar RSUExampleScenario.node[57].veinsmobility 	startTime 	114
scalar RSUExampleScenario.node[57].veinsmobility 	totalTime 	566
scalar RSUExampleScenario.node[57].veinsmobility 	stopTime 	681
scalar RSUExampleScenario.node[57].veinsmobility 	minSpeed 	0
scalar RSUExampleScenario.node[57].veinsmobility 	maxSpeed 	27.763784580808
scalar RSUExampleScenario.node[57].veinsmobility 	totalDistance 	3403.4237592668
scalar RSUExampleScenario.node[57].veinsmobility 	totalCO2Emission 	1468.9687388486
scalar RSUExampleScenario.node[29].nic.phy80211p 	busyTime 	1.2990476190476e-05
scalar RSUExampleScenario.node[29].nic.mac1609_4 	ReceivedUnicastPackets 	0
scalar RSUExampleScenario.node[29].nic.mac1609_4 	ReceivedBroadcasts 	12
scalar RSUExampleScenario.node[29].nic.mac1609_4 	SentPackets 	1
scalar RSUExampleScenario.node[29].nic.mac1609_4 	SNIRLostPackets 	19
scalar RSUExampleScenario.node[29].nic.mac1609_4 	RXTXLostPackets 	0
scalar RSUExampleScenario.node[29].nic.mac1609_4 	TotalLostPackets 	19
scalar RSUExampleScenario.node[29].nic.mac1609_4 	DroppedPacketsInMac 	0
scalar RSUExampleScenario.node[29].nic.mac1609_4 	TooLittleTime 	0
scalar RSUExampleScenario.node[29].nic.mac1609_4 	TimesIntoBackoff 	1
scalar RSUExampleScenario.node[29].nic.mac1609_4 	SlotsBackoff 	7
scalar RSUExampleScenario.node[29].nic.mac1609_4 	NumInternalContention 	0
scalar RSUExampleScenario.node[29].nic.mac1609_4 	totalBusyTime 	0.005017023597
scalar RSUExampleScenario.node[29].veinsmobility 	startTime 	53
scalar RSUExampleScenario.node[29].veinsmobility 	totalTime 	629
scalar RSUExampleScenario.node[29].veinsmobility 	stopTime 	683
scalar RSUExampleScenario.node[29].veinsmobility 	minSpeed 	0
scalar RSUExampleScenario.node[29].veinsmobility 	maxSpeed 	16.663127341149
scalar RSUExampleScenario.node[29].veinsmobility 	totalDistance 	3250.4666786104
scalar RSUExampleScenario.node[29].veinsmobility 	totalCO2Emission 	1206.765619265
scalar RSUExampleScenario.node[61].nic.phy80211p 	busyTime 	1.1764705882353e-05
scalar RSUExampleScenario.node[61].nic.mac1609_4 	ReceivedUnicastPackets 	0
scalar RSUExampleScenario.node[61].nic.mac1609_4 	ReceivedBroadcasts 	17
scalar RSUExampleScenario.node[61].nic.mac1609_4 	SentPackets 	1
scalar RSUExampleScenario.node[61].nic.mac1609_4 	SNIRLostPackets 	7
scalar RSUExampleScenario.node[61].nic.mac1609_4 	RXTXLostPackets 	4
scalar RSUExampleScenario.node[61].nic.mac1609_4 	TotalLostPackets 	11
scalar RSUExampleScenario.node[61].nic.mac1609_4 	DroppedPacketsInMac 	0
scalar RSUExampleScenario.node[61].nic.mac1609_4 	TooLittleTime 	0
scalar RSUExampleScenario.node[61].nic.mac1609_4 	TimesIntoBackoff 	1
scalar RSUExampleScenario.node[61].nic.mac1609_4 	SlotsBackoff 	1
scalar RSUExampleScenario.node[61].nic.mac1609_4 	NumInternalContention 	0
scalar RSUExampleScenario.node[61].nic.mac1609_4 	totalBusyTime 	0.005545
scalar RSUExampleScenario.node[61].veinsmobility 	startTime 	124
scalar RSUExampleScenario.node[61].veinsmobility 	totalTime 	560
scalar RSUExampleScenario.node[61].veinsmobility 	stopTime 	685
scalar RSUExampleScenario.node[61].veinsmobility 	minSpeed 	0
scalar RSUExampleScenario.node[61].veinsmobility 	maxSpeed 	26.496019089721
scalar RSUExampleScenario.node[61].veinsmobility 	totalDistance 	3398.9449040531
scalar RSUExampleScenario.node[61].veinsmobility 	totalCO2Emission 	1357.0719469091
scalar RSUExampleScenario.node[53].nic.phy80211p 	busyTime 	9.5257731958763e-06
scalar RSUExampleScenario.node[53].nic.mac1609_4 	ReceivedUnicastPackets 	0
scalar RSUExampleScenario.node[53].nic.mac1609_4 	ReceivedBroadcasts 	15
scalar RSUExampleScenario.node[53].nic.mac1609_4 	SentPackets 	1
scalar RSUExampleScenario.node[53].nic.mac1609_4 	SNIRLostPackets 	6
scalar RSUExampleScenario.node[53].nic.mac1609_4 	RXTXLostPackets 	0
scalar RSUExampleScenario.node[53].nic.mac1609_4 	TotalLostPackets 	6
scalar RSUExampleScenario.node[53].nic.mac1609_4 	DroppedPacketsInMac 	0
scalar RSUExampleScenario.node[53].nic.mac1609_4 	TooLittleTime 	0
scalar RSUExampleScenario.node[53].nic.mac1609_4 	TimesIntoBackoff 	2
scalar RSUExampleScenario.node[53].nic.mac1609_4 	SlotsBackoff 	10
scalar RSUExampleScenario.node[53].nic.mac1609_4 	NumInternalContention 	0
scalar RSUExampleScenario.node[53].nic.mac1609_4 	totalBusyTime 	0.004489
scalar RSUExampleScenario.node[53].veinsmobility 	startTime 	106
scalar RSUExampleScenario.node[53].veinsmobility 	totalTime 	581
scalar RSUExampleScenario.node[53].veinsmobility 	stopTime 	688
scalar RSUExampleScenario.node[53].veinsmobility 	minSpeed 	0
scalar RSUExampleScenario.node[53].veinsmobility 	maxSpeed 	27.717677810881
scalar RSUExampleScenario.node[53].veinsmobility 	totalDistance 	3412.992926128
scalar RSUExampleScenario.node[53].veinsmobility 	totalCO2Emission 	1341.6184347044
scalar RSUExampleScenario.node[56].nic.phy80211p 	busyTime 	9.5916955017301e-06
scalar RSUExampleScenario.node[56].nic.mac1609_4 	ReceivedUnicastPackets 	0
scalar RSUExampleScenario.node[56].nic.mac1609_4 	ReceivedBroadcasts 	14
scalar RSUExampleScenario.node[56].nic.mac1609_4 	SentPackets 	1
scalar RSUExampleScenario.node[56].nic.mac1609_4 	SNIRLostPackets 	7
scalar RSUExampleScenario.node[56].nic.mac1609_4 	RXTXLostPackets 	0
scalar RSUExampleScenario.node[56].nic.mac1609_4 	TotalLostPackets 	7
scalar RSUExampleScenario.node[56].nic.mac1609_4 	DroppedPacketsInMac 	0
scalar RSUExampleScenario.node[56].nic.mac1609_4 	TooLittleTime 	0
scalar RSUExampleScenario.node[56].nic.mac1609_4 	TimesIntoBackoff 	2
scalar RSUExampleScenario.node[56].nic.mac1609_4 	SlotsBackoff 	6
scalar RSUExampleScenario.node[56].nic.mac1609_4 	NumInternalContention 	0
scalar RSUExampleScenario.node[56].nic.mac1609_4 	totalBusyTime 	0.00448904688
scalar RSUExampleScenario.node[56].veinsmobility 	startTime 	112
scalar RSUExampleScenario.node[56].veinsmobility 	totalTime 	577
scalar RSUExampleScenario.node[56].veinsmobility 	stopTime 	690
scalar RSUExampleScenario.node[56].veinsmobility 	minSpeed 	0
scalar RSUExampleScenario.node[56].veinsmobility 	maxSpeed 	27.757389381593
scalar RSUExampleScenario.node[56].veinsmobility 	totalDistance 	3396.6061683966
scalar RSUExampleScenario.node[56].veinsmobility 	totalCO2Emission 	1386.8986368003
scalar RSUExampleScenario.node[52].nic.phy80211p 	busyTime 	9.4125636672326e-06
scalar RSUExampleScenario.node[52].nic.mac1609_4 	ReceivedUnicastPackets 	0
scalar RSUExampleScenario.node[52].nic.mac1609_4 	ReceivedBroadcasts 	15
scalar RSUExampleScenario.node[52].nic.mac1609_4 	SentPackets 	1
scalar RSUExampleScenario.node[52].nic.mac1609_4 	SNIRLostPackets 	6
scalar RSUExampleScenario.node[52].nic.mac1609_4 	RXTXLostPackets 	0
scalar RSUExampleScenario.node[52].nic.mac1609_4 	TotalLostPackets 	6
scalar RSUExampleScenario.node[52].nic.mac1609_4 	DroppedPacketsInMac 	0
scalar RSUExampleScenario.node[52].nic.mac1609_4 	TooLittleTime 	0
scalar RSUExampleScenario.node[52].nic.mac1609_4 	TimesIntoBackoff 	1
scalar RSUExampleScenario.node[52].nic.mac1609_4 	SlotsBackoff 	2
scalar RSUExampleScenario.node[52].nic.mac1609_4 	NumInternalContention 	0
scalar RSUExampleScenario.node[52].nic.mac1609_4 	totalBusyTime 	0.004489
scalar RSUExampleScenario.node[52].veinsmobility 	startTime 	103
scalar RSUExampleScenario.node[52].veinsmobility 	totalTime 	588
scalar RSUExampleScenario.node[52].veinsmobility 	stopTime 	692
scalar RSUExampleScenario.node[52].veinsmobility 	minSpeed 	0
scalar RSUExampleScenario.node[52].veinsmobility 	maxSpeed 	27.703469986962
scalar RSUExampleScenario.node[52].veinsmobility 	totalDistance 	3404.8333894352
scalar RSUExampleScenario.node[52].veinsmobility 	totalCO2Emission 	1361.8554568199
scalar RSUExampleScenario.node[65].nic.phy80211p 	busyTime 	1.7380782918149e-05
scalar RSUExampleScenario.node[65].nic.mac1609_4 	ReceivedUnicastPackets 	0
scalar RSUExampleScenario.node[65].nic.mac1609_4 	ReceivedBroadcasts 	12
scalar RSUExampleScenario.node[65].nic.mac1609_4 	SentPackets 	1
scalar RSUExampleScenario.node[65].nic.mac1609_4 	SNIRLostPackets 	25
scalar RSUExampleScenario.node[65].nic.mac1609_4 	RXTXLostPackets 	2
scalar RSUExampleScenario.node[65].nic.mac1609_4 	TotalLostPackets 	27
scalar RSUExampleScenario.node[65].nic.mac1609_4 	DroppedPacketsInMac 	0
scalar RSUExampleScenario.node[65].nic.mac1609_4 	TooLittleTime 	0
scalar RSUExampleScenario.node[65].nic.mac1609_4 	TimesIntoBackoff 	2
scalar RSUExampleScenario.node[65].nic.mac1609_4 	SlotsBackoff 	9
scalar RSUExampleScenario.node[65].nic.mac1609_4 	NumInternalContention 	0
scalar RSUExampleScenario.node[65].nic.mac1609_4 	totalBusyTime 	0.005809000165
scalar RSUExampleScenario.node[65].veinsmobility 	startTime 	133
scalar RSUExampleScenario.node[65].veinsmobility 	totalTime 	561
scalar RSUExampleScenario.node[65].veinsmobility 	stopTime 	695
scalar RSUExampleScenario.node[65].veinsmobility 	minSpeed 	0
scalar RSUExampleScenario.node[65].veinsmobility 	maxSpeed 	27.773803808112
scalar RSUExampleScenario.node[65].veinsmobility 	totalDistance 	3404.267546937
scalar RSUExampleScenario.node[65].veinsmobility 	totalCO2Emission 	1319.0957950375
scalar RSUExampleScenario.node[27].nic.phy80211p 	busyTime 	1.3037037037037e-05
scalar RSUExampleScenario.node[27].nic.mac1609_4 	ReceivedUnicastPackets 	0
scalar RSUExampleScenario.node[27].nic.mac1609_4 	ReceivedBroadcasts 	10
scalar RSUExampleScenario.node[27].nic.mac1609_4 	SentPackets 	1
scalar RSUExampleScenario.node[27].nic.mac1609_4 	SNIRLostPackets 	22
scalar RSUExampleScenario.node[27].nic.mac1609_4 	RXTXLostPackets 	0
scalar RSUExampleScenario.node[27].nic.mac1609_4 	TotalLostPackets 	22
scalar RSUExampleScenario.node[27].nic.mac1609_4 	DroppedPacketsInMac 	0
scalar RSUExampleScenario.node[27].nic.mac1609_4 	TooLittleTime 	0
scalar RSUExampleScenario.node[27].nic.mac1609_4 	TimesIntoBackoff 	2
scalar RSUExampleScenario.node[27].nic.mac1609_4 	SlotsBackoff 	13
scalar RSUExampleScenario.node[27].nic.mac1609_4 	NumInternalContention 	0
scalar RSUExampleScenario.node[27].nic.mac1609_4 	totalBusyTime 	0.005017176192
scalar RSUExampleScenario.node[27].veinsmobility 	startTime 	49
scalar RSUExampleScenario.node[27].veinsmobility 	totalTime 	647
scalar RSUExampleScenario.node[27].veinsmobility 	stopTime 	697
scalar RSUExampleScenario.node[27].veinsmobility 	minSpeed 	0
scalar RSUExampleScenario.node[27].veinsmobility 	maxSpeed 	16.652683552969
scalar RSUExampleScenario.node[27].veinsmobility 	totalDistance 	3353.4028708849
scalar RSUExampleScenario.node[27].veinsmobility 	totalCO2Emission 	1204.1465270491
scalar RSUExampleScenario.node[31].nic.phy80211p 	busyTime 	1.2317262830482e-05
scalar RSUExampleScenario.node[31].nic.mac1609_4 	ReceivedUnicastPackets 	0
scalar RSUExampleScenario.node[31].nic.mac1609_4 	ReceivedBroadcasts 	12
scalar RSUExampleScenario.node[31].nic.mac1609_4 	SentPackets 	1
scalar RSUExampleScenario.node[31].nic.mac1609_4 	SNIRLostPackets 	18
scalar RSUExampleScenario.node[31].nic.mac1609_4 	RXTXLostPackets 	1
scalar RSUExampleScenario.node[31].nic.mac1609_4 	TotalLostPackets 	19
scalar RSUExampleScenario.node[31].nic.mac1609_4 	DroppedPacketsInMac 	0
scalar RSUExampleScenario.node[31].nic.mac1609_4 	TooLittleTime 	0
scalar RSUExampleScenario.node[31].nic.mac1609_4 	TimesIntoBackoff 	2
scalar RSUExampleScenario.node[31].nic.mac1609_4 	SlotsBackoff 	8
scalar RSUExampleScenario.node[31].nic.mac1609_4 	NumInternalContention 	0
scalar RSUExampleScenario.node[31].nic.mac1609_4 	totalBusyTime 	0.005067192737
scalar RSUExampleScenario.node[31].veinsmobility 	startTime 	56
scalar RSUExampleScenario.node[31].veinsmobility 	totalTime 	642
scalar RSUExampleScenario.node[31].veinsmobility 	stopTime 	699
scalar RSUExampleScenario.node[31].veinsmobility 	minSpeed 	0
scalar RSUExampleScenario.node[31].veinsmobility 	maxSpeed 	16.669267732687
scalar RSUExampleScenario.node[31].veinsmobility 	totalDistance 	3253.4773665151
scalar RSUExampleScenario.node[31].veinsmobility 	totalCO2Emission 	1180.2837910975
scalar RSUExampleScenario.node[73].nic.phy80211p 	busyTime 	1.8686025408348e-05
scalar RSUExampleScenario.node[73].nic.mac1609_4 	ReceivedUnicastPackets 	0
scalar RSUExampleScenario.node[73].nic.mac1609_4 	ReceivedBroadcasts 	18
scalar RSUExampleScenario.node[73].nic.mac1609_4 	SentPackets 	1
scalar RSUExampleScenario.node[73].nic.mac1609_4 	SNIRLostPackets 	21
scalar RSUExampleScenario.node[73].nic.mac1609_4 	RXTXLostPackets 	1
scalar RSUExampleScenario.node[73].nic.mac1609_4 	TotalLostPackets 	22
scalar RSUExampleScenario.node[73].nic.mac1609_4 	DroppedPacketsInMac 	0
scalar RSUExampleScenario.node[73].nic.mac1609_4 	TooLittleTime 	0
scalar RSUExampleScenario.node[73].nic.mac1609_4 	TimesIntoBackoff 	2
scalar RSUExampleScenario.node[73].nic.mac1609_4 	SlotsBackoff 	8
scalar RSUExampleScenario.node[73].nic.mac1609_4 	NumInternalContention 	0
scalar RSUExampleScenario.node[73].nic.mac1609_4 	totalBusyTime 	0.006865165164
scalar RSUExampleScenario.node[73].veinsmobility 	startTime 	151
scalar RSUExampleScenario.node[73].veinsmobility 	totalTime 	550
scalar RSUExampleScenario.node[73].veinsmobility 	stopTime 	702
scalar RSUExampleScenario.node[73].veinsmobility 	minSpeed 	0
scalar RSUExampleScenario.node[73].veinsmobility 	maxSpeed 	27.774796999991
scalar RSUExampleScenario.node[73].veinsmobility 	totalDistance 	3406.2275457882
scalar RSUExampleScenario.node[73].veinsmobility 	totalCO2Emission 	1268.2655953266
scalar RSUExampleScenario.node[60].nic.phy80211p 	busyTime 	1.1320754716981e-05
scalar RSUExampleScenario.node[60].nic.mac1609_4 	ReceivedUnicastPackets 	0
scalar RSUExampleScenario.node[60].nic.mac1609_4 	ReceivedBroadcasts 	13
scalar RSUExampleScenario.node[60].nic.mac1609_4 	SentPackets 	1
scalar RSUExampleScenario.node[60].nic.mac1609_4 	SNIRLostPackets 	12
scalar RSUExampleScenario.node[60].nic.mac1609_4 	RXTXLostPackets 	0
scalar RSUExampleScenario.node[60].nic.mac1609_4 	TotalLostPackets 	12
scalar RSUExampleScenario.node[60].nic.mac1609_4 	DroppedPacketsInMac 	0
scalar RSUExampleScenario.node[60].nic.mac1609_4 	TooLittleTime 	0
scalar RSUExampleScenario.node[60].nic.mac1609_4 	TimesIntoBackoff 	2
scalar RSUExampleScenario.node[60].nic.mac1609_4 	SlotsBackoff 	6
scalar RSUExampleScenario.node[60].nic.mac1609_4 	NumInternalContention 	0
scalar RSUExampleScenario.node[60].nic.mac1609_4 	totalBusyTime 	0.004753159222
scalar RSUExampleScenario.node[60].veinsmobility 	startTime 	121
scalar RSUExampleScenario.node[60].veinsmobility 	totalTime 	582
scalar RSUExampleScenario.node[60].veinsmobility 	stopTime 	704
scalar RSUExampleScenario.node[60].veinsmobility 	minSpeed 	0
scalar RSUExampleScenario.node[60].veinsmobility 	maxSpeed 	26.962701232357
scalar RSUExampleScenario.node[60].veinsmobility 	totalDistance 	3403.131434604
scalar RSUExampleScenario.node[60].veinsmobility 	totalCO2Emission 	1328.030818729
scalar RSUExampleScenario.node[63].nic.phy80211p 	busyTime 	1.4159169550173e-05
scalar RSUExampleScenario.node[63].nic.mac1609_4 	ReceivedUnicastPackets 	0
scalar RSUExampleScenario.node[63].nic.mac1609_4 	ReceivedBroadcasts 	14
scalar RSUExampleScenario.node[63].nic.mac1609_4 	SentPackets 	1
scalar RSUExampleScenario.node[63].nic.mac1609_4 	SNIRLostPackets 	16
scalar RSUExampleScenario.node[63].nic.mac1609_4 	RXTXLostPackets 	1
scalar RSUExampleScenario.node[63].nic.mac1609_4 	TotalLostPackets 	17
scalar RSUExampleScenario.node[63].nic.mac1609_4 	DroppedPacketsInMac 	0
scalar RSUExampleScenario.node[63].nic.mac1609_4 	TooLittleTime 	0
scalar RSUExampleScenario.node[63].nic.mac1609_4 	TimesIntoBackoff 	1
scalar RSUExampleScenario.node[63].nic.mac1609_4 	SlotsBackoff 	2
scalar RSUExampleScenario.node[63].nic.mac1609_4 	NumInternalContention 	0
scalar RSUExampleScenario.node[63].nic.mac1609_4 	totalBusyTime 	0.005809000399
scalar RSUExampleScenario.node[63].veinsmobility 	startTime 	128
scalar RSUExampleScenario.node[63].veinsmobility 	totalTime 	577
scalar RSUExampleScenario.node[63].veinsmobility 	stopTime 	706
scalar RSUExampleScenario.node[63].veinsmobility 	minSpeed 	0
scalar RSUExampleScenario.node[63].veinsmobility 	maxSpeed 	27.549625812536
scalar RSUExampleScenario.node[63].veinsmobility 	totalDistance 	3402.1937722746
scalar RSUExampleScenario.node[63].veinsmobility 	totalCO2Emission 	1360.4856137603
scalar RSUExampleScenario.node[96].nic.phy80211p 	busyTime 	1.5586715867159e-05
scalar RSUExampleScenario.node[96].nic.mac1609_4 	ReceivedUnicastPackets 	0
scalar RSUExampleScenario.node[96].nic.mac1609_4 	ReceivedBroadcasts 	22
scalar RSUExampleScenario.node[96].nic.mac1609_4 	SentPackets 	1
scalar RSUExampleScenario.node[96].nic.mac1609_4 	SNIRLostPackets 	10
scalar RSUExampleScenario.node[96].nic.mac1609_4 	RXTXLostPackets 	1
scalar RSUExampleScenario.node[96].nic.mac1609_4 	TotalLostPackets 	11
scalar RSUExampleScenario.node[96].nic.mac1609_4 	DroppedPacketsInMac 	0
scalar RSUExampleScenario.node[96].nic.mac1609_4 	TooLittleTime 	0
scalar RSUExampleScenario.node[96].nic.mac1609_4 	TimesIntoBackoff 	2
scalar RSUExampleScenario.node[96].nic.mac1609_4 	SlotsBackoff 	10
scalar RSUExampleScenario.node[96].nic.mac1609_4 	NumInternalContention 	0
scalar RSUExampleScenario.node[96].nic.mac1609_4 	totalBusyTime 	0.007129
scalar RSUExampleScenario.node[96].veinsmobility 	startTime 	214
scalar RSUExampleScenario.node[96].veinsmobility 	totalTime 	541
scalar RSUExampleScenario.node[96].veinsmobility 	stopTime 	756
scalar RSUExampleScenario.node[96].veinsmobility 	minSpeed 	0
scalar RSUExampleScenario.node[96].veinsmobility 	maxSpeed 	27.774246932706
scalar RSUExampleScenario.node[96].veinsmobility 	totalDistance 	3393.305514633
scalar RSUExampleScenario.node[96].veinsmobility 	totalCO2Emission 	1112.9965608559
scalar RSUExampleScenario.node[58].nic.phy80211p 	busyTime 	8.2371294851794e-06
scalar RSUExampleScenario.node[58].nic.mac1609_4 	ReceivedUnicastPackets 	0
scalar RSUExampleScenario.node[58].nic.mac1609_4 	ReceivedBroadcasts 	15
scalar RSUExampleScenario.node[58].nic.mac1609_4 	SentPackets 	1
scalar RSUExampleScenario.node[58].nic.mac1609_4 	SNIRLostPackets 	5
scalar RSUExampleScenario.node[58].nic.mac1609_4 	RXTXLostPackets 	1
scalar RSUExampleScenario.node[58].nic.mac1609_4 	TotalLostPackets 	6
scalar RSUExampleScenario.node[58].nic.mac1609_4 	DroppedPacketsInMac 	0
scalar RSUExampleScenario.node[58].nic.mac1609_4 	TooLittleTime 	0
scalar RSUExampleScenario.node[58].nic.mac1609_4 	TimesIntoBackoff 	2
scalar RSUExampleScenario.node[58].nic.mac1609_4 	SlotsBackoff 	7
scalar RSUExampleScenario.node[58].nic.mac1609_4 	NumInternalContention 	0
scalar RSUExampleScenario.node[58].nic.mac1609_4 	totalBusyTime 	0.004489149388
scalar RSUExampleScenario.node[58].veinsmobility 	startTime 	117
scalar RSUExampleScenario.node[58].veinsmobility 	totalTime 	640
scalar RSUExampleScenario.node[58].veinsmobility 	stopTime 	758
scalar RSUExampleScenario.node[58].veinsmobility 	minSpeed 	0
scalar RSUExampleScenario.node[58].veinsmobility 	maxSpeed 	27.744182381257
scalar RSUExampleScenario.node[58].veinsmobility 	totalDistance 	3401.8567079545
scalar RSUExampleScenario.node[58].veinsmobility 	totalCO2Emission 	1404.1929005286
scalar RSUExampleScenario.node[30].nic.phy80211p 	busyTime 	1.1218130311615e-05
scalar RSUExampleScenario.node[30].nic.mac1609_4 	ReceivedUnicastPackets 	0
scalar RSUExampleScenario.node[30].nic.mac1609_4 	ReceivedBroadcasts 	12
scalar RSUExampleScenario.node[30].nic.mac1609_4 	SentPackets 	1
scalar RSUExampleScenario.node[30].nic.mac1609_4 	SNIRLostPackets 	18
scalar RSUExampleScenario.node[30].nic.mac1609_4 	RXTXLostPackets 	1
scalar RSUExampleScenario.node[30].nic.mac1609_4 	TotalLostPackets 	19
scalar RSUExampleScenario.node[30].nic.mac1609_4 	DroppedPacketsInMac 	0
scalar RSUExampleScenario.node[30].nic.mac1609_4 	TooLittleTime 	0
scalar RSUExampleScenario.node[30].nic.mac1609_4 	TimesIntoBackoff 	1
scalar RSUExampleScenario.node[30].nic.mac1609_4 	SlotsBackoff 	5
scalar RSUExampleScenario.node[30].nic.mac1609_4 	NumInternalContention 	0
scalar RSUExampleScenario.node[30].nic.mac1609_4 	totalBusyTime 	0.005067153617
scalar RSUExampleScenario.node[30].veinsmobility 	startTime 	55
scalar RSUExampleScenario.node[30].veinsmobility 	totalTime 	705
scalar RSUExampleScenario.node[30].veinsmobility 	stopTime 	761
scalar RSUExampleScenario.node[30].veinsmobility 	minSpeed 	0
scalar RSUExampleScenario.node[30].veinsmobility 	maxSpeed 	16.604155821307
scalar RSUExampleScenario.node[30].veinsmobility 	totalDistance 	3259.8723866783
scalar RSUExampleScenario.node[30].veinsmobility 	totalCO2Emission 	1364.3139321943
scalar RSUExampleScenario.node[68].nic.phy80211p 	busyTime 	1.9069020866774e-05
scalar RSUExampleScenario.node[68].nic.mac1609_4 	ReceivedUnicastPackets 	0
scalar RSUExampleScenario.node[68].nic.mac1609_4 	ReceivedBroadcasts 	15
scalar RSUExampleScenario.node[68].nic.mac1609_4 	SentPackets 	1
scalar RSUExampleScenario.node[68].nic.mac1609_4 	SNIRLostPackets 	30
scalar RSUExampleScenario.node[68].nic.mac1609_4 	RXTXLostPackets 	0
scalar RSUExampleScenario.node[68].nic.mac1609_4 	TotalLostPackets 	30
scalar RSUExampleScenario.node[68].nic.mac1609_4 	DroppedPacketsInMac 	0
scalar RSUExampleScenario.node[68].nic.mac1609_4 	TooLittleTime 	0
scalar RSUExampleScenario.node[68].nic.mac1609_4 	TimesIntoBackoff 	2
scalar RSUExampleScenario.node[68].nic.mac1609_4 	SlotsBackoff 	5
scalar RSUExampleScenario.node[68].nic.mac1609_4 	NumInternalContention 	0
scalar RSUExampleScenario.node[68].nic.mac1609_4 	totalBusyTime 	0.007129180709
scalar RSUExampleScenario.node[68].veinsmobility 	startTime 	140
scalar RSUExampleScenario.node[68].veinsmobility 	totalTime 	622
scalar RSUExampleScenario.node[68].veinsmobility 	stopTime 	763
scalar RSUExampleScenario.node[68].veinsmobility 	minSpeed 	0
scalar RSUExampleScenario.node[68].veinsmobility 	maxSpeed 	27.763881841097
scalar RSUExampleScenario.node[68].veinsmobility 	totalDistance 	3405.0045655498
scalar RSUExampleScenario.node[68].veinsmobility 	totalCO2Emission 	1334.2853722564
scalar RSUExampleScenario.node[44].nic.phy80211p 	busyTime 	1.0390670553936e-05
scalar RSUExampleScenario.node[44].nic.mac1609_4 	ReceivedUnicastPackets 	0
scalar RSUExampleScenario.node[44].nic.mac1609_4 	ReceivedBroadcasts 	15
scalar RSUExampleScenario.node[44].nic.mac1609_4 	SentPackets 	1
scalar RSUExampleScenario.node[44].nic.mac1609_4 	SNIRLostPackets 	12
scalar RSUExampleScenario.node[44].nic.mac1609_4 	RXTXLostPackets 	2
scalar RSUExampleScenario.node[44].nic.mac1609_4 	TotalLostPackets 	14
scalar RSUExampleScenario.node[44].nic.mac1609_4 	DroppedPacketsInMac 	0
scalar RSUExampleScenario.node[44].nic.mac1609_4 	TooLittleTime 	0
scalar RSUExampleScenario.node[44].nic.mac1609_4 	TimesIntoBackoff 	2
scalar RSUExampleScenario.node[44].nic.mac1609_4 	SlotsBackoff 	8
scalar RSUExampleScenario.node[44].nic.mac1609_4 	NumInternalContention 	0
scalar RSUExampleScenario.node[44].nic.mac1609_4 	totalBusyTime 	0.00528110129
scalar RSUExampleScenario.node[44].veinsmobility 	startTime 	84
scalar RSUExampleScenario.node[44].veinsmobility 	totalTime 	685
scalar RSUExampleScenario.node[44].veinsmobility 	stopTime 	770
scalar RSUExampleScenario.node[44].veinsmobility 	minSpeed 	0
scalar RSUExampleScenario.node[44].veinsmobility 	maxSpeed 	16.669457048395
scalar RSUExampleScenario.node[44].veinsmobility 	totalDistance 	3248.9014234466
scalar RSUExampleScenario.node[44].veinsmobility 	totalCO2Emission 	1115.3103280379
scalar RSUExampleScenario.node[28].nic.phy80211p 	busyTime 	1.0252427184466e-05
scalar RSUExampleScenario.node[28].nic.mac1609_4 	ReceivedUnicastPackets 	0
scalar RSUExampleScenario.node[28].nic.mac1609_4 	ReceivedBroadcasts 	13
scalar RSUExampleScenario.node[28].nic.mac1609_4 	SentPackets 	1
scalar RSUExampleScenario.node[28].nic.mac1609_4 	SNIRLostPackets 	15
scalar RSUExampleScenario.node[28].nic.mac1609_4 	RXTXLostPackets 	3
scalar RSUExampleScenario.node[28].nic.mac1609_4 	TotalLostPackets 	18
scalar RSUExampleScenario.node[28].nic.mac1609_4 	DroppedPacketsInMac 	0
scalar RSUExampleScenario.node[28].nic.mac1609_4 	TooLittleTime 	0
scalar RSUExampleScenario.node[28].nic.mac1609_4 	TimesIntoBackoff 	2
scalar RSUExampleScenario.node[28].nic.mac1609_4 	SlotsBackoff 	3
scalar RSUExampleScenario.node[28].nic.mac1609_4 	NumInternalContention 	0
scalar RSUExampleScenario.node[28].nic.mac1609_4 	totalBusyTime 	0.005017
scalar RSUExampleScenario.node[28].veinsmobility 	startTime 	51
scalar RSUExampleScenario.node[28].veinsmobility 	totalTime 	720
scalar RSUExampleScenario.node[28].veinsmobility 	stopTime 	772
scalar RSUExampleScenario.node[28].veinsmobility 	minSpeed 	0
scalar RSUExampleScenario.node[28].veinsmobility 	maxSpeed 	16.665104344543
scalar RSUExampleScenario.node[28].veinsmobility 	totalDistance 	3353.3446498275
scalar RSUExampleScenario.node[28].veinsmobility 	totalCO2Emission 	1309.4773259511
scalar RSUExampleScenario.node[45].nic.phy80211p 	busyTime 	1.3773913043478e-05
scalar RSUExampleScenario.node[45].nic.mac1609_4 	ReceivedUnicastPackets 	0
scalar RSUExampleScenario.node[45].nic.mac1609_4 	ReceivedBroadcasts 	17
scalar RSUExampleScenario.node[45].nic.mac1609_4 	SentPackets 	1
scalar RSUExampleScenario.node[45].nic.mac1609_4 	SNIRLostPackets 	19
scalar RSUExampleScenario.node[45].nic.mac1609_4 	RXTXLostPackets 	0
scalar RSUExampleScenario.node[45].nic.mac1609_4 	TotalLostPackets 	19
scalar RSUExampleScenario.node[45].nic.mac1609_4 	DroppedPacketsInMac 	0
scalar RSUExampleScenario.node[45].nic.mac1609_4 	TooLittleTime 	0
scalar RSUExampleScenario.node[45].nic.mac1609_4 	TimesIntoBackoff 	2
scalar RSUExampleScenario.node[45].nic.mac1609_4 	SlotsBackoff 	6
scalar RSUExampleScenario.node[45].nic.mac1609_4 	NumInternalContention 	0
scalar RSUExampleScenario.node[45].nic.mac1609_4 	totalBusyTime 	0.006337098059
scalar RSUExampleScenario.node[45].veinsmobility 	startTime 	88
scalar RSUExampleScenario.node[45].veinsmobility 	totalTime 	689
scalar RSUExampleScenario.node[45].veinsmobility 	stopTime 	778
scalar RSUExampleScenario.node[45].veinsmobility 	minSpeed 	0
scalar RSUExampleScenario.node[45].veinsmobility 	maxSpeed 	16.668713768675
scalar RSUExampleScenario.node[45].veinsmobility 	totalDistance 	3248.0148654141
scalar RSUExampleScenario.node[45].veinsmobility 	totalCO2Emission 	1107.8573499513
scalar RSUExampleScenario.node[79].nic.phy80211p 	busyTime 	1.8857142857143e-05
scalar RSUExampleScenario.node[79].nic.mac1609_4 	ReceivedUnicastPackets 	0
scalar RSUExampleScenario.node[79].nic.mac1609_4 	ReceivedBroadcasts 	26
scalar RSUExampleScenario.node[79].nic.mac1609_4 	SentPackets 	1
scalar RSUExampleScenario.node[79].nic.mac1609_4 	SNIRLostPackets 	18
scalar RSUExampleScenario.node[79].nic.mac1609_4 	RXTXLostPackets 	1
scalar RSUExampleScenario.node[79].nic.mac1609_4 	TotalLostPackets 	19
scalar RSUExampleScenario.node[79].nic.mac1609_4 	DroppedPacketsInMac 	0
scalar RSUExampleScenario.node[79].nic.mac1609_4 	TooLittleTime 	0
scalar RSUExampleScenario.node[79].nic.mac1609_4 	TimesIntoBackoff 	1
scalar RSUExampleScenario.node[79].nic.mac1609_4 	SlotsBackoff 	4
scalar RSUExampleScenario.node[79].nic.mac1609_4 	NumInternalContention 	0
scalar RSUExampleScenario.node[79].nic.mac1609_4 	totalBusyTime 	0.008713061988
scalar RSUExampleScenario.node[79].veinsmobility 	startTime 	165
scalar RSUExampleScenario.node[79].veinsmobility 	totalTime 	615
scalar RSUExampleScenario.node[79].veinsmobility 	stopTime 	781
scalar RSUExampleScenario.node[79].veinsmobility 	minSpeed 	0
scalar RSUExampleScenario.node[79].veinsmobility 	maxSpeed 	27.768484527878
scalar RSUExampleScenario.node[79].veinsmobility 	totalDistance 	3408.9918462881
scalar RSUExampleScenario.node[79].veinsmobility 	totalCO2Emission 	1338.685748079
scalar RSUExampleScenario.node[36].nic.phy80211p 	busyTime 	9.2050209205021e-06
scalar RSUExampleScenario.node[36].nic.mac1609_4 	ReceivedUnicastPackets 	0
scalar RSUExampleScenario.node[36].nic.mac1609_4 	ReceivedBroadcasts 	14
scalar RSUExampleScenario.node[36].nic.mac1609_4 	SentPackets 	1
scalar RSUExampleScenario.node[36].nic.mac1609_4 	SNIRLostPackets 	11
scalar RSUExampleScenario.node[36].nic.mac1609_4 	RXTXLostPackets 	1
scalar RSUExampleScenario.node[36].nic.mac1609_4 	TotalLostPackets 	12
scalar RSUExampleScenario.node[36].nic.mac1609_4 	DroppedPacketsInMac 	0
scalar RSUExampleScenario.node[36].nic.mac1609_4 	TooLittleTime 	0
scalar RSUExampleScenario.node[36].nic.mac1609_4 	TimesIntoBackoff 	1
scalar RSUExampleScenario.node[36].nic.mac1609_4 	SlotsBackoff 	2
scalar RSUExampleScenario.node[36].nic.mac1609_4 	NumInternalContention 	0
scalar RSUExampleScenario.node[36].nic.mac1609_4 	totalBusyTime 	0.004489119422
scalar RSUExampleScenario.node[36].veinsmobility 	startTime 	66
scalar RSUExampleScenario.node[36].veinsmobility 	totalTime 	716
scalar RSUExampleScenario.node[36].veinsmobility 	stopTime 	783
scalar RSUExampleScenario.node[36].veinsmobility 	minSpeed 	0
scalar RSUExampleScenario.node[36].veinsmobility 	maxSpeed 	16.66903800766
scalar RSUExampleScenario.node[36].veinsmobility 	totalDistance 	3250.2143211313
scalar RSUExampleScenario.node[36].veinsmobility 	totalCO2Emission 	1264.984479046
scalar RSUExampleScenario.node[37].nic.phy80211p 	busyTime 	8.4568245125348e-06
scalar RSUExampleScenario.node[37].nic.mac1609_4 	ReceivedUnicastPackets 	0
scalar RSUExampleScenario.node[37].nic.mac1609_4 	ReceivedBroadcasts 	13
scalar RSUExampleScenario.node[37].nic.mac1609_4 	SentPackets 	1
scalar RSUExampleScenario.node[37].nic.mac1609_4 	SNIRLostPackets 	10
scalar RSUExampleScenario.node[37].nic.mac1609_4 	RXTXLostPackets 	3
scalar RSUExampleScenario.node[37].nic.mac1609_4 	TotalLostPackets 	13
scalar RSUExampleScenario.node[37].nic.mac1609_4 	DroppedPacketsInMac 	0
scalar RSUExampleScenario.node[37].nic.mac1609_4 	TooLittleTime 	0
scalar RSUExampleScenario.node[37].nic.mac1609_4 	TimesIntoBackoff 	2
scalar RSUExampleScenario.node[37].nic.mac1609_4 	SlotsBackoff 	11
scalar RSUExampleScenario.node[37].nic.mac1609_4 	NumInternalContention 	0
scalar RSUExampleScenario.node[37].nic.mac1609_4 	totalBusyTime 	0.004489059252
scalar RSUExampleScenario.node[37].veinsmobility 	startTime 	68
scalar RSUExampleScenario.node[37].veinsmobility 	totalTime 	717
scalar RSUExampleScenario.node[37].veinsmobility 	stopTime 	786
scalar RSUExampleScenario.node[37].veinsmobility 	minSpeed 	0
scalar RSUExampleScenario.node[37].veinsmobility 	maxSpeed 	16.665396585083
scalar RSUExampleScenario.node[37].veinsmobility 	totalDistance 	3257.8371755763
scalar RSUExampleScenario.node[37].veinsmobility 	totalCO2Emission 	1288.4552153283
scalar RSUExampleScenario.node[38].nic.phy80211p 	busyTime 	9.1922005571031e-06
scalar RSUExampleScenario.node[38].nic.mac1609_4 	ReceivedUnicastPackets 	0
scalar RSUExampleScenario.node[38].nic.mac1609_4 	ReceivedBroadcasts 	13
scalar RSUExampleScenario.node[38].nic.mac1609_4 	SentPackets 	1
scalar RSUExampleScenario.node[38].nic.mac1609_4 	SNIRLostPackets 	12
scalar RSUExampleScenario.node[38].nic.mac1609_4 	RXTXLostPackets 	1
scalar RSUExampleScenario.node[38].nic.mac1609_4 	TotalLostPackets 	13
scalar RSUExampleScenario.node[38].nic.mac1609_4 	DroppedPacketsInMac 	0
scalar RSUExampleScenario.node[38].nic.mac1609_4 	TooLittleTime 	0
scalar RSUExampleScenario.node[38].nic.mac1609_4 	TimesIntoBackoff 	2
scalar RSUExampleScenario.node[38].nic.mac1609_4 	SlotsBackoff 	8
scalar RSUExampleScenario.node[38].nic.mac1609_4 	NumInternalContention 	0
scalar RSUExampleScenario.node[38].nic.mac1609_4 	totalBusyTime 	0.004489001385
scalar RSUExampleScenario.node[38].veinsmobility 	startTime 	70
scalar RSUExampleScenario.node[38].veinsmobility 	totalTime 	717
scalar RSUExampleScenario.node[38].veinsmobility 	stopTime 	788
scalar RSUExampleScenario.node[38].veinsmobility 	minSpeed 	0
scalar RSUExampleScenario.node[38].veinsmobility 	maxSpeed 	16.630757220397
scalar RSUExampleScenario.node[38].veinsmobility 	totalDistance 	3252.5863826118
scalar RSUExampleScenario.node[38].veinsmobility 	totalCO2Emission 	1265.370280991
scalar RSUExampleScenario.node[32].nic.phy80211p 	busyTime 	9.3770491803279e-06
scalar RSUExampleScenario.node[32].nic.mac1609_4 	ReceivedUnicastPackets 	0
scalar RSUExampleScenario.node[32].nic.mac1609_4 	ReceivedBroadcasts 	11
scalar RSUExampleScenario.node[32].nic.mac1609_4 	SentPackets 	1
scalar RSUExampleScenario.node[32].nic.mac1609_4 	SNIRLostPackets 	15
scalar RSUExampleScenario.node[32].nic.mac1609_4 	RXTXLostPackets 	1
scalar RSUExampleScenario.node[32].nic.mac1609_4 	TotalLostPackets 	16
scalar RSUExampleScenario.node[32].nic.mac1609_4 	DroppedPacketsInMac 	0
scalar RSUExampleScenario.node[32].nic.mac1609_4 	TooLittleTime 	0
scalar RSUExampleScenario.node[32].nic.mac1609_4 	TimesIntoBackoff 	2
scalar RSUExampleScenario.node[32].nic.mac1609_4 	SlotsBackoff 	7
scalar RSUExampleScenario.node[32].nic.mac1609_4 	NumInternalContention 	0
scalar RSUExampleScenario.node[32].nic.mac1609_4 	totalBusyTime 	0.004753047756
scalar RSUExampleScenario.node[32].veinsmobility 	startTime 	58
scalar RSUExampleScenario.node[32].veinsmobility 	totalTime 	731
scalar RSUExampleScenario.node[32].veinsmobility 	stopTime 	790
scalar RSUExampleScenario.node[32].veinsmobility 	minSpeed 	0
scalar RSUExampleScenario.node[32].veinsmobility 	maxSpeed 	16.668982003485
scalar RSUExampleScenario.node[32].veinsmobility 	totalDistance 	3255.2792145532
scalar RSUExampleScenario.node[32].veinsmobility 	totalCO2Emission 	1288.30604082
scalar RSUExampleScenario.node[64].nic.phy80211p 	busyTime 	1.236253776435e-05
scalar RSUExampleScenario.node[64].nic.mac1609_4 	ReceivedUnicastPackets 	0
scalar RSUExampleScenario.node[64].nic.mac1609_4 	ReceivedBroadcasts 	16
scalar RSUExampleScenario.node[64].nic.mac1609_4 	SentPackets 	1
scalar RSUExampleScenario.node[64].nic.mac1609_4 	SNIRLostPackets 	14
scalar RSUExampleScenario.node[64].nic.mac1609_4 	RXTXLostPackets 	4
scalar RSUExampleScenario.node[64].nic.mac1609_4 	TotalLostPackets 	18
scalar RSUExampleScenario.node[64].nic.mac1609_4 	DroppedPacketsInMac 	0
scalar RSUExampleScenario.node[64].nic.mac1609_4 	TooLittleTime 	0
scalar RSUExampleScenario.node[64].nic.mac1609_4 	TimesIntoBackoff 	2
scalar RSUExampleScenario.node[64].nic.mac1609_4 	SlotsBackoff 	11
scalar RSUExampleScenario.node[64].nic.mac1609_4 	NumInternalContention 	0
scalar RSUExampleScenario.node[64].nic.mac1609_4 	totalBusyTime 	0.006073
scalar RSUExampleScenario.node[64].veinsmobility 	startTime 	131
scalar RSUExampleScenario.node[64].veinsmobility 	totalTime 	661
scalar RSUExampleScenario.node[64].veinsmobility 	stopTime 	793
scalar RSUExampleScenario.node[64].veinsmobility 	minSpeed 	0
scalar RSUExampleScenario.node[64].veinsmobility 	maxSpeed 	26.631019440873
scalar RSUExampleScenario.node[64].veinsmobility 	totalDistance 	3399.6088624288
scalar RSUExampleScenario.node[64].veinsmobility 	totalCO2Emission 	1474.3309172606
scalar RSUExampleScenario.node[66].nic.phy80211p 	busyTime 	1.6e-05
scalar RSUExampleScenario.node[66].nic.mac1609_4 	ReceivedUnicastPackets 	0
scalar RSUExampleScenario.node[66].nic.mac1609_4 	ReceivedBroadcasts 	12
scalar RSUExampleScenario.node[66].nic.mac1609_4 	SentPackets 	1
scalar RSUExampleScenario.node[66].nic.mac1609_4 	SNIRLostPackets 	28
scalar RSUExampleScenario.node[66].nic.mac1609_4 	RXTXLostPackets 	1
scalar RSUExampleScenario.node[66].nic.mac1609_4 	TotalLostPackets 	29
scalar RSUExampleScenario.node[66].nic.mac1609_4 	DroppedPacketsInMac 	0
scalar RSUExampleScenario.node[66].nic.mac1609_4 	TooLittleTime 	0
scalar RSUExampleScenario.node[66].nic.mac1609_4 	TimesIntoBackoff 	2
scalar RSUExampleScenario.node[66].nic.mac1609_4 	SlotsBackoff 	7
scalar RSUExampleScenario.node[66].nic.mac1609_4 	NumInternalContention 	0
scalar RSUExampleScenario.node[66].nic.mac1609_4 	totalBusyTime 	0.006073217998
scalar RSUExampleScenario.node[66].veinsmobility 	startTime 	135
scalar RSUExampleScenario.node[66].veinsmobility 	totalTime 	659
scalar RSUExampleScenario.node[66].veinsmobility 	stopTime 	795
scalar RSUExampleScenario.node[66].veinsmobility 	minSpeed 	0
scalar RSUExampleScenario.node[66].veinsmobility 	maxSpeed 	27.319156020909
scalar RSUExampleScenario.node[66].veinsmobility 	totalDistance 	3400.5137049914
scalar RSUExampleScenario.node[66].veinsmobility 	totalCO2Emission 	1447.6244227186
scalar RSUExampleScenario.node[34].nic.phy80211p 	busyTime 	9.3387755102041e-06
[...]
scalar RSUExampleScenario.node[376].veinsmobility 	minSpeed 	0
scalar RSUExampleScenario.node[376].veinsmobility 	maxSpeed 	27.779268018276
scalar RSUExampleScenario.node[376].veinsmobility 	totalDistance 	3395.7110986819
scalar RSUExampleScenario.node[376].veinsmobility 	totalCO2Emission 	1125.915129918
scalar RSUExampleScenario.node[377].nic.phy80211p 	busyTime 	1.0983655274889e-05
scalar RSUExampleScenario.node[377].nic.mac1609_4 	ReceivedUnicastPackets 	0
scalar RSUExampleScenario.node[377].nic.mac1609_4 	ReceivedBroadcasts 	21
scalar RSUExampleScenario.node[377].nic.mac1609_4 	SentPackets 	1
scalar RSUExampleScenario.node[377].nic.mac1609_4 	SNIRLostPackets 	7
scalar RSUExampleScenario.node[377].nic.mac1609_4 	RXTXLostPackets 	0
scalar RSUExampleScenario.node[377].nic.mac1609_4 	TotalLostPackets 	7
scalar RSUExampleScenario.node[377].nic.mac1609_4 	DroppedPacketsInMac 	0
scalar RSUExampleScenario.node[377].nic.mac1609_4 	TooLittleTime 	0
scalar RSUExampleScenario.node[377].nic.mac1609_4 	TimesIntoBackoff 	2
scalar RSUExampleScenario.node[377].nic.mac1609_4 	SlotsBackoff 	2
scalar RSUExampleScenario.node[377].nic.mac1609_4 	NumInternalContention 	0
scalar RSUExampleScenario.node[377].nic.mac1609_4 	totalBusyTime 	0.006601091677
scalar RSUExampleScenario.node[377].veinsmobility 	startTime 	1773
scalar RSUExampleScenario.node[377].veinsmobility 	totalTime 	672
scalar RSUExampleScenario.node[377].veinsmobility 	stopTime 	2446
scalar RSUExampleScenario.node[377].veinsmobility 	minSpeed 	0
scalar RSUExampleScenario.node[377].veinsmobility 	maxSpeed 	27.771499828493
scalar RSUExampleScenario.node[377].veinsmobility 	totalDistance 	3397.4268267363
scalar RSUExampleScenario.node[377].veinsmobility 	totalCO2Emission 	1112.553470142
scalar RSUExampleScenario.node[378].nic.phy80211p 	busyTime 	1.0575667655786e-05
scalar RSUExampleScenario.node[378].nic.mac1609_4 	ReceivedUnicastPackets 	0
scalar RSUExampleScenario.node[378].nic.mac1609_4 	ReceivedBroadcasts 	23
scalar RSUExampleScenario.node[378].nic.mac1609_4 	SentPackets 	1
scalar RSUExampleScenario.node[378].nic.mac1609_4 	SNIRLostPackets 	4
scalar RSUExampleScenario.node[378].nic.mac1609_4 	RXTXLostPackets 	1
scalar RSUExampleScenario.node[378].nic.mac1609_4 	TotalLostPackets 	5
scalar RSUExampleScenario.node[378].nic.mac1609_4 	DroppedPacketsInMac 	0
scalar RSUExampleScenario.node[378].nic.mac1609_4 	TooLittleTime 	0
scalar RSUExampleScenario.node[378].nic.mac1609_4 	TimesIntoBackoff 	2
scalar RSUExampleScenario.node[378].nic.mac1609_4 	SlotsBackoff 	10
scalar RSUExampleScenario.node[378].nic.mac1609_4 	NumInternalContention 	0
scalar RSUExampleScenario.node[378].nic.mac1609_4 	totalBusyTime 	0.006601
scalar RSUExampleScenario.node[378].veinsmobility 	startTime 	1775
scalar RSUExampleScenario.node[378].veinsmobility 	totalTime 	673
scalar RSUExampleScenario.node[378].veinsmobility 	stopTime 	2449
scalar RSUExampleScenario.node[378].veinsmobility 	minSpeed 	0
scalar RSUExampleScenario.node[378].veinsmobility 	maxSpeed 	27.774512190215
scalar RSUExampleScenario.node[378].veinsmobility 	totalDistance 	3394.2006183884
scalar RSUExampleScenario.node[378].veinsmobility 	totalCO2Emission 	1126.9078318984
scalar RSUExampleScenario.node[379].nic.phy80211p 	busyTime 	1.056e-05
scalar RSUExampleScenario.node[379].nic.mac1609_4 	ReceivedUnicastPackets 	0
scalar RSUExampleScenario.node[379].nic.mac1609_4 	ReceivedBroadcasts 	22
scalar RSUExampleScenario.node[379].nic.mac1609_4 	SentPackets 	1
scalar RSUExampleScenario.node[379].nic.mac1609_4 	SNIRLostPackets 	5
scalar RSUExampleScenario.node[379].nic.mac1609_4 	RXTXLostPackets 	1
scalar RSUExampleScenario.node[379].nic.mac1609_4 	TotalLostPackets 	6
scalar RSUExampleScenario.node[379].nic.mac1609_4 	DroppedPacketsInMac 	0
scalar RSUExampleScenario.node[379].nic.mac1609_4 	TooLittleTime 	0
scalar RSUExampleScenario.node[379].nic.mac1609_4 	TimesIntoBackoff 	2
scalar RSUExampleScenario.node[379].nic.mac1609_4 	SlotsBackoff 	11
scalar RSUExampleScenario.node[379].nic.mac1609_4 	NumInternalContention 	0
scalar RSUExampleScenario.node[379].nic.mac1609_4 	totalBusyTime 	0.006601001781
scalar RSUExampleScenario.node[379].veinsmobility 	startTime 	1778
scalar RSUExampleScenario.node[379].veinsmobility 	totalTime 	674
scalar RSUExampleScenario.node[379].veinsmobility 	stopTime 	2453
scalar RSUExampleScenario.node[379].veinsmobility 	minSpeed 	0
scalar RSUExampleScenario.node[379].veinsmobility 	maxSpeed 	27.772320126136
scalar RSUExampleScenario.node[379].veinsmobility 	totalDistance 	3397.6581897279
scalar RSUExampleScenario.node[379].veinsmobility 	totalCO2Emission 	1157.3565071786
scalar RSUExampleScenario.node[380].nic.phy80211p 	busyTime 	3.52e-06
scalar RSUExampleScenario.node[380].nic.mac1609_4 	ReceivedUnicastPackets 	0
scalar RSUExampleScenario.node[380].nic.mac1609_4 	ReceivedBroadcasts 	9
scalar RSUExampleScenario.node[380].nic.mac1609_4 	SentPackets 	1
scalar RSUExampleScenario.node[380].nic.mac1609_4 	SNIRLostPackets 	0
scalar RSUExampleScenario.node[380].nic.mac1609_4 	RXTXLostPackets 	0
scalar RSUExampleScenario.node[380].nic.mac1609_4 	TotalLostPackets 	0
scalar RSUExampleScenario.node[380].nic.mac1609_4 	DroppedPacketsInMac 	0
scalar RSUExampleScenario.node[380].nic.mac1609_4 	TooLittleTime 	0
scalar RSUExampleScenario.node[380].nic.mac1609_4 	TimesIntoBackoff 	1
scalar RSUExampleScenario.node[380].nic.mac1609_4 	SlotsBackoff 	0
scalar RSUExampleScenario.node[380].nic.mac1609_4 	NumInternalContention 	0
scalar RSUExampleScenario.node[380].nic.mac1609_4 	totalBusyTime 	0.002641
scalar RSUExampleScenario.node[380].veinsmobility 	startTime 	1781
scalar RSUExampleScenario.node[380].veinsmobility 	totalTime 	674
scalar RSUExampleScenario.node[380].veinsmobility 	stopTime 	2456
scalar RSUExampleScenario.node[380].veinsmobility 	minSpeed 	0
scalar RSUExampleScenario.node[380].veinsmobility 	maxSpeed 	27.775871712387
scalar RSUExampleScenario.node[380].veinsmobility 	totalDistance 	3394.9410612073
scalar RSUExampleScenario.node[380].veinsmobility 	totalCO2Emission 	1151.6409958486
scalar RSUExampleScenario.node[381].nic.phy80211p 	busyTime 	3.5147928994083e-06
scalar RSUExampleScenario.node[381].nic.mac1609_4 	ReceivedUnicastPackets 	0
scalar RSUExampleScenario.node[381].nic.mac1609_4 	ReceivedBroadcasts 	9
scalar RSUExampleScenario.node[381].nic.mac1609_4 	SentPackets 	1
scalar RSUExampleScenario.node[381].nic.mac1609_4 	SNIRLostPackets 	0
scalar RSUExampleScenario.node[381].nic.mac1609_4 	RXTXLostPackets 	0
scalar RSUExampleScenario.node[381].nic.mac1609_4 	TotalLostPackets 	0
scalar RSUExampleScenario.node[381].nic.mac1609_4 	DroppedPacketsInMac 	0
scalar RSUExampleScenario.node[381].nic.mac1609_4 	TooLittleTime 	0
scalar RSUExampleScenario.node[381].nic.mac1609_4 	TimesIntoBackoff 	1
scalar RSUExampleScenario.node[381].nic.mac1609_4 	SlotsBackoff 	3
scalar RSUExampleScenario.node[381].nic.mac1609_4 	NumInternalContention 	0
scalar RSUExampleScenario.node[381].nic.mac1609_4 	totalBusyTime 	0.002641
scalar RSUExampleScenario.node[381].veinsmobility 	startTime 	1783
scalar RSUExampleScenario.node[381].veinsmobility 	totalTime 	675
scalar RSUExampleScenario.node[381].veinsmobility 	stopTime 	2459
scalar RSUExampleScenario.node[381].veinsmobility 	minSpeed 	0
scalar RSUExampleScenario.node[381].veinsmobility 	maxSpeed 	27.777431249996
scalar RSUExampleScenario.node[381].veinsmobility 	totalDistance 	3395.4596978795
scalar RSUExampleScenario.node[381].veinsmobility 	totalCO2Emission 	1171.0712323018
scalar RSUExampleScenario.node[382].nic.phy80211p 	busyTime 	3.52e-06
scalar RSUExampleScenario.node[382].nic.mac1609_4 	ReceivedUnicastPackets 	0
scalar RSUExampleScenario.node[382].nic.mac1609_4 	ReceivedBroadcasts 	9
scalar RSUExampleScenario.node[382].nic.mac1609_4 	SentPackets 	1
scalar RSUExampleScenario.node[382].nic.mac1609_4 	SNIRLostPackets 	0
scalar RSUExampleScenario.node[382].nic.mac1609_4 	RXTXLostPackets 	0
scalar RSUExampleScenario.node[382].nic.mac1609_4 	TotalLostPackets 	0
scalar RSUExampleScenario.node[382].nic.mac1609_4 	DroppedPacketsInMac 	0
scalar RSUExampleScenario.node[382].nic.mac1609_4 	TooLittleTime 	0
scalar RSUExampleScenario.node[382].nic.mac1609_4 	TimesIntoBackoff 	1
scalar RSUExampleScenario.node[382].nic.mac1609_4 	SlotsBackoff 	0
scalar RSUExampleScenario.node[382].nic.mac1609_4 	NumInternalContention 	0
scalar RSUExampleScenario.node[382].nic.mac1609_4 	totalBusyTime 	0.002641
scalar RSUExampleScenario.node[382].veinsmobility 	startTime 	1787
scalar RSUExampleScenario.node[382].veinsmobility 	totalTime 	674
scalar RSUExampleScenario.node[382].veinsmobility 	stopTime 	2462
scalar RSUExampleScenario.node[382].veinsmobility 	minSpeed 	0
scalar RSUExampleScenario.node[382].veinsmobility 	maxSpeed 	27.763733638892
scalar RSUExampleScenario.node[382].veinsmobility 	totalDistance 	3394.8474736152
scalar RSUExampleScenario.node[382].veinsmobility 	totalCO2Emission 	1160.5554259865
scalar RSUExampleScenario.node[383].nic.phy80211p 	busyTime 	3.5252225519288e-06
scalar RSUExampleScenario.node[383].nic.mac1609_4 	ReceivedUnicastPackets 	0
scalar RSUExampleScenario.node[383].nic.mac1609_4 	ReceivedBroadcasts 	9
scalar RSUExampleScenario.node[383].nic.mac1609_4 	SentPackets 	1
scalar RSUExampleScenario.node[383].nic.mac1609_4 	SNIRLostPackets 	0
scalar RSUExampleScenario.node[383].nic.mac1609_4 	RXTXLostPackets 	0
scalar RSUExampleScenario.node[383].nic.mac1609_4 	TotalLostPackets 	0
scalar RSUExampleScenario.node[383].nic.mac1609_4 	DroppedPacketsInMac 	0
scalar RSUExampleScenario.node[383].nic.mac1609_4 	TooLittleTime 	0
scalar RSUExampleScenario.node[383].nic.mac1609_4 	TimesIntoBackoff 	1
scalar RSUExampleScenario.node[383].nic.mac1609_4 	SlotsBackoff 	2
scalar RSUExampleScenario.node[383].nic.mac1609_4 	NumInternalContention 	0
scalar RSUExampleScenario.node[383].nic.mac1609_4 	totalBusyTime 	0.002641
scalar RSUExampleScenario.node[383].veinsmobility 	startTime 	1791
scalar RSUExampleScenario.node[383].veinsmobility 	totalTime 	673
scalar RSUExampleScenario.node[383].veinsmobility 	stopTime 	2465
scalar RSUExampleScenario.node[383].veinsmobility 	minSpeed 	0
scalar RSUExampleScenario.node[383].veinsmobility 	maxSpeed 	27.775025814396
scalar RSUExampleScenario.node[383].veinsmobility 	totalDistance 	3393.0361841201
scalar RSUExampleScenario.node[383].veinsmobility 	totalCO2Emission 	1153.4865656103
scalar RSUExampleScenario.node[384].nic.phy80211p 	busyTime 	3.5304606240713e-06
scalar RSUExampleScenario.node[384].nic.mac1609_4 	ReceivedUnicastPackets 	0
scalar RSUExampleScenario.node[384].nic.mac1609_4 	ReceivedBroadcasts 	9
scalar RSUExampleScenario.node[384].nic.mac1609_4 	SentPackets 	1
scalar RSUExampleScenario.node[384].nic.mac1609_4 	SNIRLostPackets 	0
scalar RSUExampleScenario.node[384].nic.mac1609_4 	RXTXLostPackets 	0
scalar RSUExampleScenario.node[384].nic.mac1609_4 	TotalLostPackets 	0
scalar RSUExampleScenario.node[384].nic.mac1609_4 	DroppedPacketsInMac 	0
scalar RSUExampleScenario.node[384].nic.mac1609_4 	TooLittleTime 	0
scalar RSUExampleScenario.node[384].nic.mac1609_4 	TimesIntoBackoff 	2
scalar RSUExampleScenario.node[384].nic.mac1609_4 	SlotsBackoff 	10
scalar RSUExampleScenario.node[384].nic.mac1609_4 	NumInternalContention 	0
scalar RSUExampleScenario.node[384].nic.mac1609_4 	totalBusyTime 	0.002641
scalar RSUExampleScenario.node[384].veinsmobility 	startTime 	1796
scalar RSUExampleScenario.node[384].veinsmobility 	totalTime 	672
scalar RSUExampleScenario.node[384].veinsmobility 	stopTime 	2469
scalar RSUExampleScenario.node[384].veinsmobility 	minSpeed 	0
scalar RSUExampleScenario.node[384].veinsmobility 	maxSpeed 	27.773608788626
scalar RSUExampleScenario.node[384].veinsmobility 	totalDistance 	3398.2486760199
scalar RSUExampleScenario.node[384].veinsmobility 	totalCO2Emission 	1147.6471995605
scalar RSUExampleScenario.node[385].nic.phy80211p 	busyTime 	1.7483443708609e-06
scalar RSUExampleScenario.node[385].nic.mac1609_4 	ReceivedUnicastPackets 	0
scalar RSUExampleScenario.node[385].nic.mac1609_4 	ReceivedBroadcasts 	4
scalar RSUExampleScenario.node[385].nic.mac1609_4 	SentPackets 	1
scalar RSUExampleScenario.node[385].nic.mac1609_4 	SNIRLostPackets 	0
scalar RSUExampleScenario.node[385].nic.mac1609_4 	RXTXLostPackets 	0
scalar RSUExampleScenario.node[385].nic.mac1609_4 	TotalLostPackets 	0
scalar RSUExampleScenario.node[385].nic.mac1609_4 	DroppedPacketsInMac 	0
scalar RSUExampleScenario.node[385].nic.mac1609_4 	TooLittleTime 	0
scalar RSUExampleScenario.node[385].nic.mac1609_4 	TimesIntoBackoff 	1
scalar RSUExampleScenario.node[385].nic.mac1609_4 	SlotsBackoff 	7
scalar RSUExampleScenario.node[385].nic.mac1609_4 	NumInternalContention 	0
scalar RSUExampleScenario.node[385].nic.mac1609_4 	totalBusyTime 	0.001321
scalar RSUExampleScenario.node[385].veinsmobility 	startTime 	1925
scalar RSUExampleScenario.node[385].veinsmobility 	totalTime 	603
scalar RSUExampleScenario.node[385].veinsmobility 	stopTime 	2529
scalar RSUExampleScenario.node[385].veinsmobility 	minSpeed 	0
scalar RSUExampleScenario.node[385].veinsmobility 	maxSpeed 	27.778805528858
scalar RSUExampleScenario.node[385].veinsmobility 	totalDistance 	3392.7114782035
scalar RSUExampleScenario.node[385].veinsmobility 	totalCO2Emission 	1113.8600073505
scalar RSUExampleScenario.node[386].nic.phy80211p 	busyTime 	1.7115072933549e-06
scalar RSUExampleScenario.node[386].nic.mac1609_4 	ReceivedUnicastPackets 	0
scalar RSUExampleScenario.node[386].nic.mac1609_4 	ReceivedBroadcasts 	4
scalar RSUExampleScenario.node[386].nic.mac1609_4 	SentPackets 	1
scalar RSUExampleScenario.node[386].nic.mac1609_4 	SNIRLostPackets 	0
scalar RSUExampleScenario.node[386].nic.mac1609_4 	RXTXLostPackets 	0
scalar RSUExampleScenario.node[386].nic.mac1609_4 	TotalLostPackets 	0
scalar RSUExampleScenario.node[386].nic.mac1609_4 	DroppedPacketsInMac 	0
scalar RSUExampleScenario.node[386].nic.mac1609_4 	TooLittleTime 	0
scalar RSUExampleScenario.node[386].nic.mac1609_4 	TimesIntoBackoff 	1
scalar RSUExampleScenario.node[386].nic.mac1609_4 	SlotsBackoff 	0
scalar RSUExampleScenario.node[386].nic.mac1609_4 	NumInternalContention 	0
scalar RSUExampleScenario.node[386].nic.mac1609_4 	totalBusyTime 	0.001321
scalar RSUExampleScenario.node[386].veinsmobility 	startTime 	1927
scalar RSUExampleScenario.node[386].veinsmobility 	totalTime 	616
scalar RSUExampleScenario.node[386].veinsmobility 	stopTime 	2544
scalar RSUExampleScenario.node[386].veinsmobility 	minSpeed 	0
scalar RSUExampleScenario.node[386].veinsmobility 	maxSpeed 	27.76992279726
scalar RSUExampleScenario.node[386].veinsmobility 	totalDistance 	3398.4134333306
scalar RSUExampleScenario.node[386].veinsmobility 	totalCO2Emission 	1123.9789120008
scalar RSUExampleScenario.node[388].nic.phy80211p 	busyTime 	1.7004830917874e-06
scalar RSUExampleScenario.node[388].nic.mac1609_4 	ReceivedUnicastPackets 	0
scalar RSUExampleScenario.node[388].nic.mac1609_4 	ReceivedBroadcasts 	4
scalar RSUExampleScenario.node[388].nic.mac1609_4 	SentPackets 	1
scalar RSUExampleScenario.node[388].nic.mac1609_4 	SNIRLostPackets 	0
scalar RSUExampleScenario.node[388].nic.mac1609_4 	RXTXLostPackets 	0
scalar RSUExampleScenario.node[388].nic.mac1609_4 	TotalLostPackets 	0
scalar RSUExampleScenario.node[388].nic.mac1609_4 	DroppedPacketsInMac 	0
scalar RSUExampleScenario.node[388].nic.mac1609_4 	TooLittleTime 	0
scalar RSUExampleScenario.node[388].nic.mac1609_4 	TimesIntoBackoff 	1
scalar RSUExampleScenario.node[388].nic.mac1609_4 	SlotsBackoff 	1
scalar RSUExampleScenario.node[388].nic.mac1609_4 	NumInternalContention 	0
scalar RSUExampleScenario.node[388].nic.mac1609_4 	totalBusyTime 	0.001321
scalar RSUExampleScenario.node[388].veinsmobility 	startTime 	1931
scalar RSUExampleScenario.node[388].veinsmobility 	totalTime 	620
scalar RSUExampleScenario.node[388].veinsmobility 	stopTime 	2552
scalar RSUExampleScenario.node[388].veinsmobility 	minSpeed 	0
scalar RSUExampleScenario.node[388].veinsmobility 	maxSpeed 	27.779366070832
scalar RSUExampleScenario.node[388].veinsmobility 	totalDistance 	3399.6547500987
scalar RSUExampleScenario.node[388].veinsmobility 	totalCO2Emission 	1134.3027101103
scalar RSUExampleScenario.node[387].nic.phy80211p 	busyTime 	1.6869009584665e-06
scalar RSUExampleScenario.node[387].nic.mac1609_4 	ReceivedUnicastPackets 	0
scalar RSUExampleScenario.node[387].nic.mac1609_4 	ReceivedBroadcasts 	4
scalar RSUExampleScenario.node[387].nic.mac1609_4 	SentPackets 	1
scalar RSUExampleScenario.node[387].nic.mac1609_4 	SNIRLostPackets 	0
scalar RSUExampleScenario.node[387].nic.mac1609_4 	RXTXLostPackets 	0
scalar RSUExampleScenario.node[387].nic.mac1609_4 	TotalLostPackets 	0
scalar RSUExampleScenario.node[387].nic.mac1609_4 	DroppedPacketsInMac 	0
scalar RSUExampleScenario.node[387].nic.mac1609_4 	TooLittleTime 	0
scalar RSUExampleScenario.node[387].nic.mac1609_4 	TimesIntoBackoff 	1
scalar RSUExampleScenario.node[387].nic.mac1609_4 	SlotsBackoff 	2
scalar RSUExampleScenario.node[387].nic.mac1609_4 	NumInternalContention 	0
scalar RSUExampleScenario.node[387].nic.mac1609_4 	totalBusyTime 	0.001321
scalar RSUExampleScenario.node[387].veinsmobility 	startTime 	1929
scalar RSUExampleScenario.node[387].veinsmobility 	totalTime 	625
scalar RSUExampleScenario.node[387].veinsmobility 	stopTime 	2555
scalar RSUExampleScenario.node[387].veinsmobility 	minSpeed 	0
scalar RSUExampleScenario.node[387].veinsmobility 	maxSpeed 	27.779887807042
scalar RSUExampleScenario.node[387].veinsmobility 	totalDistance 	3397.7075062859
scalar RSUExampleScenario.node[387].veinsmobility 	totalCO2Emission 	1128.5254331513
scalar RSUExampleScenario.node[389].nic.phy80211p 	busyTime 	1.6708860759494e-06
scalar RSUExampleScenario.node[389].nic.mac1609_4 	ReceivedUnicastPackets 	0
scalar RSUExampleScenario.node[389].nic.mac1609_4 	ReceivedBroadcasts 	4
scalar RSUExampleScenario.node[389].nic.mac1609_4 	SentPackets 	1
scalar RSUExampleScenario.node[389].nic.mac1609_4 	SNIRLostPackets 	0
scalar RSUExampleScenario.node[389].nic.mac1609_4 	RXTXLostPackets 	0
scalar RSUExampleScenario.node[389].nic.mac1609_4 	TotalLostPackets 	0
scalar RSUExampleScenario.node[389].nic.mac1609_4 	DroppedPacketsInMac 	0
scalar RSUExampleScenario.node[389].nic.mac1609_4 	TooLittleTime 	0
scalar RSUExampleScenario.node[389].nic.mac1609_4 	TimesIntoBackoff 	1
scalar RSUExampleScenario.node[389].nic.mac1609_4 	SlotsBackoff 	7
scalar RSUExampleScenario.node[389].nic.mac1609_4 	NumInternalContention 	0
scalar RSUExampleScenario.node[389].nic.mac1609_4 	totalBusyTime 	0.001321
scalar RSUExampleScenario.node[389].veinsmobility 	startTime 	1933
scalar RSUExampleScenario.node[389].veinsmobility 	totalTime 	631
scalar RSUExampleScenario.node[389].veinsmobility 	stopTime 	2565
scalar RSUExampleScenario.node[389].veinsmobility 	minSpeed 	0
scalar RSUExampleScenario.node[389].veinsmobility 	maxSpeed 	27.778242633465
scalar RSUExampleScenario.node[389].veinsmobility 	totalDistance 	3401.1737536311
scalar RSUExampleScenario.node[389].veinsmobility 	totalCO2Emission 	1138.7301835252
scalar RSUExampleScenario.rsu[0].nic.phy80211p 	busyTime 	4.224e-07
scalar RSUExampleScenario.rsu[0].nic.mac1609_4 	ReceivedUnicastPackets 	0
scalar RSUExampleScenario.rsu[0].nic.mac1609_4 	ReceivedBroadcasts 	9
scalar RSUExampleScenario.rsu[0].nic.mac1609_4 	SentPackets 	1
scalar RSUExampleScenario.rsu[0].nic.mac1609_4 	SNIRLostPackets 	7
scalar RSUExampleScenario.rsu[0].nic.mac1609_4 	RXTXLostPackets 	0
scalar RSUExampleScenario.rsu[0].nic.mac1609_4 	TotalLostPackets 	7
scalar RSUExampleScenario.rsu[0].nic.mac1609_4 	DroppedPacketsInMac 	0
scalar RSUExampleScenario.rsu[0].nic.mac1609_4 	TooLittleTime 	0
scalar RSUExampleScenario.rsu[0].nic.mac1609_4 	TimesIntoBackoff 	1
scalar RSUExampleScenario.rsu[0].nic.mac1609_4 	SlotsBackoff 	6
scalar RSUExampleScenario.rsu[0].nic.mac1609_4 	NumInternalContention 	0
scalar RSUExampleScenario.rsu[0].nic.mac1609_4 	totalBusyTime 	0.003433
