file 38236655 1483369569                                        
version 2
run debug-0-20170102-16:03:28-2638
attr configname debug
attr datetime 20170102-16:03:28
attr experiment debug
attr inifile omnetpp.ini
attr iterationvars ""
attr iterationvars2 $repetition=0
attr measurement ""
attr network RSUExampleScenario
attr processid 2638
attr repetition 0
attr replication #0
attr resultdir results
attr runnumber 0
attr seedset 0
param **.coreDebug false
param **.debug false
param *.**.nic.mac1609_4.bitrate 27Mbps
param *.**.nic.mac1609_4.txPower 20mW
param *.**.nic.mac1609_4.useServiceChannel false
param *.**.nic.phy80211p.analogueModels "xmldoc(\"config.xml\")"
param *.**.nic.phy80211p.decider "xmldoc(\"config.xml\")"
param *.**.nic.phy80211p.sensitivity -89dBm
param *.**.nic.phy80211p.thermalNoise -110dBm
param *.**.nic.phy80211p.usePropagationDelay true
param *.**.nic.phy80211p.useThermalNoise true
param *.annotations.draw false
param *.connectionManager.alpha 2.0
param *.connectionManager.carrierFrequency "5.890e9 Hz"
param *.connectionManager.pMax 12mW
param *.connectionManager.sat -89dBm
param *.connectionManager.sendDirect true
param *.manager.autoShutdown true
param *.manager.host "\"localhost\""
param *.manager.launchConfig "xmldoc(\"erlangen.launchd.xml\")"
param *.manager.margin 25
param *.manager.moduleDisplayString "\"\""
param *.manager.moduleName "\"node\""
param *.manager.moduleType "\"org.car2x.veins.nodes.Car\""
param *.manager.port 9999
param *.manager.updateInterval 1s
param *.node[*].appl.beaconInterval 1s
param *.node[*].appl.beaconPriority 3
param *.node[*].appl.dataOnSch false
param *.node[*].appl.dataPriority 2
param *.node[*].appl.debug false
param *.node[*].appl.headerLength "256 bit"
param *.node[*].appl.maxOffset 0.005s
param *.node[*].appl.sendBeacons false
param *.node[*].appl.sendData true
param *.node[*].applType "\"TraCIDemo11p\""
param *.node[*].mobilityType "\"TraCIMobility\""
param *.node[*].mobilityType.debug true
param *.node[*].veinsmobility.accidentCount 5
param *.node[*].veinsmobility.accidentDuration 43s
param *.node[*].veinsmobility.accidentStart 85s
param *.node[*].veinsmobility.x 0
param *.node[*].veinsmobility.y 0
param *.node[*].veinsmobility.z 1.895
param *.node[*].veinsmobilityType "\"org.car2x.veins.modules.mobility.traci.TraCIMobility\""
param *.node[*].veinsmobilityType.debug true
param *.obstacles.debug false
param *.obstacles.obstacles "xmldoc(\"config.xml\", \"//AnalogueModel[@type='SimpleObstacleShadowing']/obstacles\")"
param *.playgroundSizeX 2500m
param *.playgroundSizeY 2500m
param *.playgroundSizeZ 50m
param *.rsu[*].appl.beaconInterval 1s
param *.rsu[*].appl.beaconPriority 3
param *.rsu[*].appl.dataOnSch false
param *.rsu[*].appl.dataPriority 2
param *.rsu[*].appl.debug false
param *.rsu[*].appl.headerLength "256 bit"
param *.rsu[*].appl.maxOffset 0.005s
param *.rsu[*].appl.sendBeacons false
param *.rsu[*].appl.sendData true
param *.rsu[*].applType "\"TraCIDemoRSU11p\""
param *.rsu[0].mobility.x 2000
param *.rsu[0].mobility.y 2000
param *.rsu[0].mobility.z 3
param *.world.use2D false
param *.world.useTorus false

vector 4  RSUExampleScenario.node[0].veinsmobility  posx  ETV
vector 5  RSUExampleScenario.node[0].veinsmobility  posy  ETV
vector 6  RSUExampleScenario.node[0].veinsmobility  speed  ETV
vector 11  RSUExampleScenario.node[1].veinsmobility  posx  ETV
vector 12  RSUExampleScenario.node[1].veinsmobility  posy  ETV
vector 7  RSUExampleScenario.node[0].veinsmobility  acceleration  ETV
vector 8  RSUExampleScenario.node[0].veinsmobility  co2emission  ETV
vector 13  RSUExampleScenario.node[1].veinsmobility  speed  ETV
vector 18  RSUExampleScenario.node[2].veinsmobility  posx  ETV
vector 19  RSUExampleScenario.node[2].veinsmobility  posy  ETV
vector 14  RSUExampleScenario.node[1].veinsmobility  acceleration  ETV
vector 15  RSUExampleScenario.node[1].veinsmobility  co2emission  ETV
vector 20  RSUExampleScenario.node[2].veinsmobility  speed  ETV
vector 25  RSUExampleScenario.node[3].veinsmobility  posx  ETV
vector 26  RSUExampleScenario.node[3].veinsmobility  posy  ETV
vector 21  RSUExampleScenario.node[2].veinsmobility  acceleration  ETV
vector 22  RSUExampleScenario.node[2].veinsmobility  co2emission  ETV
vector 32  RSUExampleScenario.node[4].veinsmobility  posx  ETV
vector 33  RSUExampleScenario.node[4].veinsmobility  posy  ETV
vector 27  RSUExampleScenario.node[3].veinsmobility  speed  ETV
vector 28  RSUExampleScenario.node[3].veinsmobility  acceleration  ETV
vector 29  RSUExampleScenario.node[3].veinsmobility  co2emission  ETV
vector 34  RSUExampleScenario.node[4].veinsmobility  speed  ETV
vector 39  RSUExampleScenario.node[5].veinsmobility  posx  ETV
vector 40  RSUExampleScenario.node[5].veinsmobility  posy  ETV
vector 35  RSUExampleScenario.node[4].veinsmobility  acceleration  ETV
vector 36  RSUExampleScenario.node[4].veinsmobility  co2emission  ETV
vector 41  RSUExampleScenario.node[5].veinsmobility  speed  ETV
vector 46  RSUExampleScenario.node[6].veinsmobility  posx  ETV
vector 47  RSUExampleScenario.node[6].veinsmobility  posy  ETV
vector 42  RSUExampleScenario.node[5].veinsmobility  acceleration  ETV
vector 43  RSUExampleScenario.node[5].veinsmobility  co2emission  ETV
vector 48  RSUExampleScenario.node[6].veinsmobility  speed  ETV
vector 53  RSUExampleScenario.node[7].veinsmobility  posx  ETV
vector 54  RSUExampleScenario.node[7].veinsmobility  posy  ETV
vector 49  RSUExampleScenario.node[6].veinsmobility  acceleration  ETV
vector 50  RSUExampleScenario.node[6].veinsmobility  co2emission  ETV
vector 55  RSUExampleScenario.node[7].veinsmobility  speed  ETV
vector 60  RSUExampleScenario.node[8].veinsmobility  posx  ETV
vector 61  RSUExampleScenario.node[8].veinsmobility  posy  ETV
vector 56  RSUExampleScenario.node[7].veinsmobility  acceleration  ETV
vector 57  RSUExampleScenario.node[7].veinsmobility  co2emission  ETV
vector 67  RSUExampleScenario.node[9].veinsmobility  posx  ETV
vector 68  RSUExampleScenario.node[9].veinsmobility  posy  ETV
vector 62  RSUExampleScenario.node[8].veinsmobility  speed  ETV
vector 63  RSUExampleScenario.node[8].veinsmobility  acceleration  ETV
vector 64  RSUExampleScenario.node[8].veinsmobility  co2emission  ETV
vector 69  RSUExampleScenario.node[9].veinsmobility  speed  ETV
vector 74  RSUExampleScenario.node[10].veinsmobility  posx  ETV
vector 75  RSUExampleScenario.node[10].veinsmobility  posy  ETV
vector 70  RSUExampleScenario.node[9].veinsmobility  acceleration  ETV
vector 71  RSUExampleScenario.node[9].veinsmobility  co2emission  ETV
vector 81  RSUExampleScenario.node[11].veinsmobility  posx  ETV
vector 82  RSUExampleScenario.node[11].veinsmobility  posy  ETV
vector 76  RSUExampleScenario.node[10].veinsmobility  speed  ETV
vector 77  RSUExampleScenario.node[10].veinsmobility  acceleration  ETV
vector 78  RSUExampleScenario.node[10].veinsmobility  co2emission  ETV
vector 83  RSUExampleScenario.node[11].veinsmobility  speed  ETV
vector 84  RSUExampleScenario.node[11].veinsmobility  acceleration  ETV
vector 85  RSUExampleScenario.node[11].veinsmobility  co2emission  ETV
vector 88  RSUExampleScenario.node[12].veinsmobility  posx  ETV
vector 89  RSUExampleScenario.node[12].veinsmobility  posy  ETV
vector 90  RSUExampleScenario.node[12].veinsmobility  speed  ETV
vector 95  RSUExampleScenario.node[13].veinsmobility  posx  ETV
vector 96  RSUExampleScenario.node[13].veinsmobility  posy  ETV
vector 91  RSUExampleScenario.node[12].veinsmobility  acceleration  ETV
vector 92  RSUExampleScenario.node[12].veinsmobility  co2emission  ETV
vector 97  RSUExampleScenario.node[13].veinsmobility  speed  ETV
vector 102  RSUExampleScenario.node[14].veinsmobility  posx  ETV
vector 103  RSUExampleScenario.node[14].veinsmobility  posy  ETV
vector 98  RSUExampleScenario.node[13].veinsmobility  acceleration  ETV
vector 99  RSUExampleScenario.node[13].veinsmobility  co2emission  ETV
vector 109  RSUExampleScenario.node[15].veinsmobility  posx  ETV
vector 110  RSUExampleScenario.node[15].veinsmobility  posy  ETV
vector 104  RSUExampleScenario.node[14].veinsmobility  speed  ETV
vector 105  RSUExampleScenario.node[14].veinsmobility  acceleration  ETV
vector 106  RSUExampleScenario.node[14].veinsmobility  co2emission  ETV
vector 111  RSUExampleScenario.node[15].veinsmobility  speed  ETV
vector 116  RSUExampleScenario.node[16].veinsmobility  posx  ETV
vector 117  RSUExampleScenario.node[16].veinsmobility  posy  ETV
vector 112  RSUExampleScenario.node[15].veinsmobility  acceleration  ETV
vector 113  RSUExampleScenario.node[15].veinsmobility  co2emission  ETV
vector 123  RSUExampleScenario.node[17].veinsmobility  posx  ETV
vector 124  RSUExampleScenario.node[17].veinsmobility  posy  ETV
vector 118  RSUExampleScenario.node[16].veinsmobility  speed  ETV
vector 119  RSUExampleScenario.node[16].veinsmobility  acceleration  ETV
vector 120  RSUExampleScenario.node[16].veinsmobility  co2emission  ETV
vector 125  RSUExampleScenario.node[17].veinsmobility  speed  ETV
vector 130  RSUExampleScenario.node[18].veinsmobility  posx  ETV
vector 131  RSUExampleScenario.node[18].veinsmobility  posy  ETV
vector 126  RSUExampleScenario.node[17].veinsmobility  acceleration  ETV
vector 127  RSUExampleScenario.node[17].veinsmobility  co2emission  ETV
vector 137  RSUExampleScenario.node[19].veinsmobility  posx  ETV
vector 138  RSUExampleScenario.node[19].veinsmobility  posy  ETV
vector 132  RSUExampleScenario.node[18].veinsmobility  speed  ETV
vector 133  RSUExampleScenario.node[18].veinsmobility  acceleration  ETV
vector 134  RSUExampleScenario.node[18].veinsmobility  co2emission  ETV
vector 139  RSUExampleScenario.node[19].veinsmobility  speed  ETV
vector 144  RSUExampleScenario.node[20].veinsmobility  posx  ETV
vector 145  RSUExampleScenario.node[20].veinsmobility  posy  ETV
vector 140  RSUExampleScenario.node[19].veinsmobility  acceleration  ETV
vector 141  RSUExampleScenario.node[19].veinsmobility  co2emission  ETV
vector 151  RSUExampleScenario.node[21].veinsmobility  posx  ETV
vector 152  RSUExampleScenario.node[21].veinsmobility  posy  ETV
vector 146  RSUExampleScenario.node[20].veinsmobility  speed  ETV
vector 147  RSUExampleScenario.node[20].veinsmobility  acceleration  ETV
vector 148  RSUExampleScenario.node[20].veinsmobility  co2emission  ETV
vector 153  RSUExampleScenario.node[21].veinsmobility  speed  ETV
vector 158  RSUExampleScenario.node[22].veinsmobility  posx  ETV
vector 159  RSUExampleScenario.node[22].veinsmobility  posy  ETV
vector 154  RSUExampleScenario.node[21].veinsmobility  acceleration  ETV
vector 155  RSUExampleScenario.node[21].veinsmobility  co2emission  ETV
vector 160  RSUExampleScenario.node[22].veinsmobility  speed  ETV
vector 161  RSUExampleScenario.node[22].veinsmobility  acceleration  ETV
vector 162  RSUExampleScenario.node[22].veinsmobility  co2emission  ETV
vector 165  RSUExampleScenario.node[23].veinsmobility  posx  ETV
vector 166  RSUExampleScenario.node[23].veinsmobility  posy  ETV
vector 167  RSUExampleScenario.node[23].veinsmobility  speed  ETV
vector 172  RSUExampleScenario.node[24].veinsmobility  posx  ETV
vector 173  RSUExampleScenario.node[24].veinsmobility  posy  ETV
vector 168  RSUExampleScenario.node[23].veinsmobility  acceleration  ETV
vector 169  RSUExampleScenario.node[23].veinsmobility  co2emission  ETV
vector 174  RSUExampleScenario.node[24].veinsmobility  speed  ETV
vector 179  RSUExampleScenario.node[25].veinsmobility  posx  ETV
vector 180  RSUExampleScenario.node[25].veinsmobility  posy  ETV
vector 175  RSUExampleScenario.node[24].veinsmobility  acceleration  ETV
vector 176  RSUExampleScenario.node[24].veinsmobility  co2emission  ETV
vector 181  RSUExampleScenario.node[25].veinsmobility  speed  ETV
vector 186  RSUExampleScenario.node[26].veinsmobility  posx  ETV
vector 187  RSUExampleScenario.node[26].veinsmobility  posy  ETV
vector 182  RSUExampleScenario.node[25].veinsmobility  acceleration  ETV
vector 183  RSUExampleScenario.node[25].veinsmobility  co2emission  ETV
vector 193  RSUExampleScenario.node[27].veinsmobility  posx  ETV
vector 194  RSUExampleScenario.node[27].veinsmobility  posy  ETV
vector 188  RSUExampleScenario.node[26].veinsmobility  speed  ETV
vector 189  RSUExampleScenario.node[26].veinsmobility  acceleration  ETV
vector 190  RSUExampleScenario.node[26].veinsmobility  co2emission  ETV
vector 195  RSUExampleScenario.node[27].veinsmobility  speed  ETV
vector 200  RSUExampleScenario.node[28].veinsmobility  posx  ETV
vector 201  RSUExampleScenario.node[28].veinsmobility  posy  ETV
vector 196  RSUExampleScenario.node[27].veinsmobility  acceleration  ETV
vector 197  RSUExampleScenario.node[27].veinsmobility  co2emission  ETV
vector 202  RSUExampleScenario.node[28].veinsmobility  speed  ETV
vector 207  RSUExampleScenario.node[29].veinsmobility  posx  ETV
vector 208  RSUExampleScenario.node[29].veinsmobility  posy  ETV
vector 203  RSUExampleScenario.node[28].veinsmobility  acceleration  ETV
vector 204  RSUExampleScenario.node[28].veinsmobility  co2emission  ETV
vector 209  RSUExampleScenario.node[29].veinsmobility  speed  ETV
vector 214  RSUExampleScenario.node[30].veinsmobility  posx  ETV
vector 215  RSUExampleScenario.node[30].veinsmobility  posy  ETV
vector 210  RSUExampleScenario.node[29].veinsmobility  acceleration  ETV
vector 211  RSUExampleScenario.node[29].veinsmobility  co2emission  ETV
vector 221  RSUExampleScenario.node[31].veinsmobility  posx  ETV
vector 222  RSUExampleScenario.node[31].veinsmobility  posy  ETV
vector 216  RSUExampleScenario.node[30].veinsmobility  speed  ETV
vector 217  RSUExampleScenario.node[30].veinsmobility  acceleration  ETV
vector 218  RSUExampleScenario.node[30].veinsmobility  co2emission  ETV
vector 223  RSUExampleScenario.node[31].veinsmobility  speed  ETV
vector 228  RSUExampleScenario.node[32].veinsmobility  posx  ETV
vector 229  RSUExampleScenario.node[32].veinsmobility  posy  ETV
vector 224  RSUExampleScenario.node[31].veinsmobility  acceleration  ETV
vector 225  RSUExampleScenario.node[31].veinsmobility  co2emission  ETV
vector 230  RSUExampleScenario.node[32].veinsmobility  speed  ETV
vector 235  RSUExampleScenario.node[33].veinsmobility  posx  ETV
vector 236  RSUExampleScenario.node[33].veinsmobility  posy  ETV
vector 231  RSUExampleScenario.node[32].veinsmobility  acceleration  ETV
vector 232  RSUExampleScenario.node[32].veinsmobility  co2emission  ETV
vector 237  RSUExampleScenario.node[33].veinsmobility  speed  ETV
vector 242  RSUExampleScenario.node[34].veinsmobility  posx  ETV
vector 243  RSUExampleScenario.node[34].veinsmobility  posy  ETV
vector 238  RSUExampleScenario.node[33].veinsmobility  acceleration  ETV
vector 239  RSUExampleScenario.node[33].veinsmobility  co2emission  ETV
vector 244  RSUExampleScenario.node[34].veinsmobility  speed  ETV
vector 249  RSUExampleScenario.node[35].veinsmobility  posx  ETV
vector 250  RSUExampleScenario.node[35].veinsmobility  posy  ETV
vector 245  RSUExampleScenario.node[34].veinsmobility  acceleration  ETV
vector 246  RSUExampleScenario.node[34].veinsmobility  co2emission  ETV
vector 251  RSUExampleScenario.node[35].veinsmobility  speed  ETV
vector 256  RSUExampleScenario.node[36].veinsmobility  posx  ETV
vector 257  RSUExampleScenario.node[36].veinsmobility  posy  ETV
vector 252  RSUExampleScenario.node[35].veinsmobility  acceleration  ETV
vector 253  RSUExampleScenario.node[35].veinsmobility  co2emission  ETV
vector 258  RSUExampleScenario.node[36].veinsmobility  speed  ETV
vector 263  RSUExampleScenario.node[37].veinsmobility  posx  ETV
vector 264  RSUExampleScenario.node[37].veinsmobility  posy  ETV
vector 259  RSUExampleScenario.node[36].veinsmobility  acceleration  ETV
vector 260  RSUExampleScenario.node[36].veinsmobility  co2emission  ETV
vector 265  RSUExampleScenario.node[37].veinsmobility  speed  ETV
vector 270  RSUExampleScenario.node[38].veinsmobility  posx  ETV
vector 271  RSUExampleScenario.node[38].veinsmobility  posy  ETV
vector 266  RSUExampleScenario.node[37].veinsmobility  acceleration  ETV
vector 267  RSUExampleScenario.node[37].veinsmobility  co2emission  ETV
vector 272  RSUExampleScenario.node[38].veinsmobility  speed  ETV
vector 277  RSUExampleScenario.node[39].veinsmobility  posx  ETV
vector 278  RSUExampleScenario.node[39].veinsmobility  posy  ETV
vector 273  RSUExampleScenario.node[38].veinsmobility  acceleration  ETV
vector 274  RSUExampleScenario.node[38].veinsmobility  co2emission  ETV
vector 279  RSUExampleScenario.node[39].veinsmobility  speed  ETV
vector 284  RSUExampleScenario.node[40].veinsmobility  posx  ETV
vector 285  RSUExampleScenario.node[40].veinsmobility  posy  ETV
vector 280  RSUExampleScenario.node[39].veinsmobility  acceleration  ETV
vector 281  RSUExampleScenario.node[39].veinsmobility  co2emission  ETV
vector 286  RSUExampleScenario.node[40].veinsmobility  speed  ETV
vector 291  RSUExampleScenario.node[41].veinsmobility  posx  ETV
vector 292  RSUExampleScenario.node[41].veinsmobility  posy  ETV
vector 287  RSUExampleScenario.node[40].veinsmobility  acceleration  ETV
vector 288  RSUExampleScenario.node[40].veinsmobility  co2emission  ETV
vector 293  RSUExampleScenario.node[41].veinsmobility  speed  ETV
vector 298  RSUExampleScenario.node[42].veinsmobility  posx  ETV
vector 299  RSUExampleScenario.node[42].veinsmobility  posy  ETV
vector 294  RSUExampleScenario.node[41].veinsmobility  acceleration  ETV
vector 295  RSUExampleScenario.node[41].veinsmobility  co2emission  ETV
vector 300  RSUExampleScenario.node[42].veinsmobility  speed  ETV
vector 305  RSUExampleScenario.node[43].veinsmobility  posx  ETV
vector 306  RSUExampleScenario.node[43].veinsmobility  posy  ETV
vector 301  RSUExampleScenario.node[42].veinsmobility  acceleration  ETV
vector 302  RSUExampleScenario.node[42].veinsmobility  co2emission  ETV
vector 307  RSUExampleScenario.node[43].veinsmobility  speed  ETV
vector 308  RSUExampleScenario.node[43].veinsmobility  acceleration  ETV
vector 309  RSUExampleScenario.node[43].veinsmobility  co2emission  ETV
vector 312  RSUExampleScenario.node[44].veinsmobility  posx  ETV
vector 313  RSUExampleScenario.node[44].veinsmobility  posy  ETV
vector 314  RSUExampleScenario.node[44].veinsmobility  speed  ETV
vector 315  RSUExampleScenario.node[44].veinsmobility  acceleration  ETV
vector 316  RSUExampleScenario.node[44].veinsmobility  co2emission  ETV
vector 319  RSUExampleScenario.node[45].veinsmobility  posx  ETV
vector 320  RSUExampleScenario.node[45].veinsmobility  posy  ETV
vector 321  RSUExampleScenario.node[45].veinsmobility  speed  ETV
vector 326  RSUExampleScenario.node[46].veinsmobility  posx  ETV
vector 327  RSUExampleScenario.node[46].veinsmobility  posy  ETV
vector 322  RSUExampleScenario.node[45].veinsmobility  acceleration  ETV
vector 323  RSUExampleScenario.node[45].veinsmobility  co2emission  ETV
vector 328  RSUExampleScenario.node[46].veinsmobility  speed  ETV
vector 329  RSUExampleScenario.node[46].veinsmobility  acceleration  ETV
vector 330  RSUExampleScenario.node[46].veinsmobility  co2emission  ETV
vector 333  RSUExampleScenario.node[47].veinsmobility  posx  ETV
vector 334  RSUExampleScenario.node[47].veinsmobility  posy  ETV
vector 335  RSUExampleScenario.node[47].veinsmobility  speed  ETV
vector 340  RSUExampleScenario.node[48].veinsmobility  posx  ETV
vector 341  RSUExampleScenario.node[48].veinsmobility  posy  ETV
vector 336  RSUExampleScenario.node[47].veinsmobility  acceleration  ETV
vector 337  RSUExampleScenario.node[47].veinsmobility  co2emission  ETV
vector 342  RSUExampleScenario.node[48].veinsmobility  speed  ETV
vector 347  RSUExampleScenario.node[49].veinsmobility  posx  ETV
vector 348  RSUExampleScenario.node[49].veinsmobility  posy  ETV
vector 343  RSUExampleScenario.node[48].veinsmobility  acceleration  ETV
vector 344  RSUExampleScenario.node[48].veinsmobility  co2emission  ETV
vector 349  RSUExampleScenario.node[49].veinsmobility  speed  ETV
vector 354  RSUExampleScenario.node[50].veinsmobility  posx  ETV
vector 355  RSUExampleScenario.node[50].veinsmobility  posy  ETV
vector 350  RSUExampleScenario.node[49].veinsmobility  acceleration  ETV
vector 351  RSUExampleScenario.node[49].veinsmobility  co2emission  ETV
vector 356  RSUExampleScenario.node[50].veinsmobility  speed  ETV
vector 361  RSUExampleScenario.node[51].veinsmobility  posx  ETV
vector 362  RSUExampleScenario.node[51].veinsmobility  posy  ETV
vector 357  RSUExampleScenario.node[50].veinsmobility  acceleration  ETV
vector 358  RSUExampleScenario.node[50].veinsmobility  co2emission  ETV
vector 363  RSUExampleScenario.node[51].veinsmobility  speed  ETV
vector 368  RSUExampleScenario.node[52].veinsmobility  posx  ETV
vector 369  RSUExampleScenario.node[52].veinsmobility  posy  ETV
vector 364  RSUExampleScenario.node[51].veinsmobility  acceleration  ETV
vector 365  RSUExampleScenario.node[51].veinsmobility  co2emission  ETV
vector 370  RSUExampleScenario.node[52].veinsmobility  speed  ETV
vector 371  RSUExampleScenario.node[52].veinsmobility  acceleration  ETV
vector 372  RSUExampleScenario.node[52].veinsmobility  co2emission  ETV
vector 375  RSUExampleScenario.node[53].veinsmobility  posx  ETV
vector 376  RSUExampleScenario.node[53].veinsmobility  posy  ETV
vector 377  RSUExampleScenario.node[53].veinsmobility  speed  ETV
vector 382  RSUExampleScenario.node[54].veinsmobility  posx  ETV
vector 383  RSUExampleScenario.node[54].veinsmobility  posy  ETV
vector 378  RSUExampleScenario.node[53].veinsmobility  acceleration  ETV
vector 379  RSUExampleScenario.node[53].veinsmobility  co2emission  ETV
vector 384  RSUExampleScenario.node[54].veinsmobility  speed  ETV
vector 389  RSUExampleScenario.node[55].veinsmobility  posx  ETV
vector 390  RSUExampleScenario.node[55].veinsmobility  posy  ETV
vector 385  RSUExampleScenario.node[54].veinsmobility  acceleration  ETV
vector 386  RSUExampleScenario.node[54].veinsmobility  co2emission  ETV
vector 391  RSUExampleScenario.node[55].veinsmobility  speed  ETV
vector 396  RSUExampleScenario.node[56].veinsmobility  posx  ETV
vector 397  RSUExampleScenario.node[56].veinsmobility  posy  ETV
vector 392  RSUExampleScenario.node[55].veinsmobility  acceleration  ETV
vector 393  RSUExampleScenario.node[55].veinsmobility  co2emission  ETV
vector 398  RSUExampleScenario.node[56].veinsmobility  speed  ETV
vector 403  RSUExampleScenario.node[57].veinsmobility  posx  ETV
vector 404  RSUExampleScenario.node[57].veinsmobility  posy  ETV
vector 399  RSUExampleScenario.node[56].veinsmobility  acceleration  ETV
vector 400  RSUExampleScenario.node[56].veinsmobility  co2emission  ETV
vector 405  RSUExampleScenario.node[57].veinsmobility  speed  ETV
vector 406  RSUExampleScenario.node[57].veinsmobility  acceleration  ETV
vector 407  RSUExampleScenario.node[57].veinsmobility  co2emission  ETV
vector 410  RSUExampleScenario.node[58].veinsmobility  posx  ETV
vector 411  RSUExampleScenario.node[58].veinsmobility  posy  ETV
vector 412  RSUExampleScenario.node[58].veinsmobility  speed  ETV
vector 417  RSUExampleScenario.node[59].veinsmobility  posx  ETV
vector 418  RSUExampleScenario.node[59].veinsmobility  posy  ETV
vector 413  RSUExampleScenario.node[58].veinsmobility  acceleration  ETV
vector 414  RSUExampleScenario.node[58].veinsmobility  co2emission  ETV
vector 419  RSUExampleScenario.node[59].veinsmobility  speed  ETV
vector 424  RSUExampleScenario.node[60].veinsmobility  posx  ETV
vector 425  RSUExampleScenario.node[60].veinsmobility  posy  ETV
vector 420  RSUExampleScenario.node[59].veinsmobility  acceleration  ETV
vector 421  RSUExampleScenario.node[59].veinsmobility  co2emission  ETV
vector 426  RSUExampleScenario.node[60].veinsmobility  speed  ETV
vector 427  RSUExampleScenario.node[60].veinsmobility  acceleration  ETV
vector 428  RSUExampleScenario.node[60].veinsmobility  co2emission  ETV
vector 431  RSUExampleScenario.node[61].veinsmobility  posx  ETV
vector 432  RSUExampleScenario.node[61].veinsmobility  posy  ETV
vector 433  RSUExampleScenario.node[61].veinsmobility  speed  ETV
vector 438  RSUExampleScenario.node[62].veinsmobility  posx  ETV
vector 439  RSUExampleScenario.node[62].veinsmobility  posy  ETV
vector 434  RSUExampleScenario.node[61].veinsmobility  acceleration  ETV
vector 435  RSUExampleScenario.node[61].veinsmobility  co2emission  ETV
vector 440  RSUExampleScenario.node[62].veinsmobility  speed  ETV
vector 445  RSUExampleScenario.node[63].veinsmobility  posx  ETV
vector 446  RSUExampleScenario.node[63].veinsmobility  posy  ETV
vector 441  RSUExampleScenario.node[62].veinsmobility  acceleration  ETV
vector 442  RSUExampleScenario.node[62].veinsmobility  co2emission  ETV
vector 447  RSUExampleScenario.node[63].veinsmobility  speed  ETV
vector 448  RSUExampleScenario.node[63].veinsmobility  acceleration  ETV
vector 449  RSUExampleScenario.node[63].veinsmobility  co2emission  ETV
vector 452  RSUExampleScenario.node[64].veinsmobility  posx  ETV
vector 453  RSUExampleScenario.node[64].veinsmobility  posy  ETV
vector 454  RSUExampleScenario.node[64].veinsmobility  speed  ETV
vector 459  RSUExampleScenario.node[65].veinsmobility  posx  ETV
vector 460  RSUExampleScenario.node[65].veinsmobility  posy  ETV
vector 455  RSUExampleScenario.node[64].veinsmobility  acceleration  ETV
vector 456  RSUExampleScenario.node[64].veinsmobility  co2emission  ETV
vector 461  RSUExampleScenario.node[65].veinsmobility  speed  ETV
vector 466  RSUExampleScenario.node[66].veinsmobility  posx  ETV
vector 467  RSUExampleScenario.node[66].veinsmobility  posy  ETV
vector 462  RSUExampleScenario.node[65].veinsmobility  acceleration  ETV
vector 463  RSUExampleScenario.node[65].veinsmobility  co2emission  ETV
vector 468  RSUExampleScenario.node[66].veinsmobility  speed  ETV
vector 469  RSUExampleScenario.node[66].veinsmobility  acceleration  ETV
vector 470  RSUExampleScenario.node[66].veinsmobility  co2emission  ETV
vector 473  RSUExampleScenario.node[67].veinsmobility  posx  ETV
vector 474  RSUExampleScenario.node[67].veinsmobility  posy  ETV
vector 475  RSUExampleScenario.node[67].veinsmobility  speed  ETV
vector 480  RSUExampleScenario.node[68].veinsmobility  posx  ETV
vector 481  RSUExampleScenario.node[68].veinsmobility  posy  ETV
vector 476  RSUExampleScenario.node[67].veinsmobility  acceleration  ETV
vector 477  RSUExampleScenario.node[67].veinsmobility  co2emission  ETV
vector 482  RSUExampleScenario.node[68].veinsmobility  speed  ETV
vector 487  RSUExampleScenario.node[69].veinsmobility  posx  ETV
vector 488  RSUExampleScenario.node[69].veinsmobility  posy  ETV
vector 483  RSUExampleScenario.node[68].veinsmobility  acceleration  ETV
vector 484  RSUExampleScenario.node[68].veinsmobility  co2emission  ETV
vector 489  RSUExampleScenario.node[69].veinsmobility  speed  ETV
vector 494  RSUExampleScenario.node[70].veinsmobility  posx  ETV
vector 495  RSUExampleScenario.node[70].veinsmobility  posy  ETV
vector 490  RSUExampleScenario.node[69].veinsmobility  acceleration  ETV
vector 491  RSUExampleScenario.node[69].veinsmobility  co2emission  ETV
vector 496  RSUExampleScenario.node[70].veinsmobility  speed  ETV
vector 497  RSUExampleScenario.node[70].veinsmobility  acceleration  ETV
vector 498  RSUExampleScenario.node[70].veinsmobility  co2emission  ETV
vector 501  RSUExampleScenario.node[71].veinsmobility  posx  ETV
vector 502  RSUExampleScenario.node[71].veinsmobility  posy  ETV
vector 503  RSUExampleScenario.node[71].veinsmobility  speed  ETV
vector 508  RSUExampleScenario.node[72].veinsmobility  posx  ETV
vector 509  RSUExampleScenario.node[72].veinsmobility  posy  ETV
vector 504  RSUExampleScenario.node[71].veinsmobility  acceleration  ETV
vector 505  RSUExampleScenario.node[71].veinsmobility  co2emission  ETV
vector 510  RSUExampleScenario.node[72].veinsmobility  speed  ETV
vector 515  RSUExampleScenario.node[73].veinsmobility  posx  ETV
vector 516  RSUExampleScenario.node[73].veinsmobility  posy  ETV
vector 511  RSUExampleScenario.node[72].veinsmobility  acceleration  ETV
vector 512  RSUExampleScenario.node[72].veinsmobility  co2emission  ETV
vector 517  RSUExampleScenario.node[73].veinsmobility  speed  ETV
vector 522  RSUExampleScenario.node[74].veinsmobility  posx  ETV
vector 523  RSUExampleScenario.node[74].veinsmobility  posy  ETV
vector 518  RSUExampleScenario.node[73].veinsmobility  acceleration  ETV
vector 519  RSUExampleScenario.node[73].veinsmobility  co2emission  ETV
vector 524  RSUExampleScenario.node[74].veinsmobility  speed  ETV
vector 525  RSUExampleScenario.node[74].veinsmobility  acceleration  ETV
vector 526  RSUExampleScenario.node[74].veinsmobility  co2emission  ETV
vector 529  RSUExampleScenario.node[75].veinsmobility  posx  ETV
vector 530  RSUExampleScenario.node[75].veinsmobility  posy  ETV
vector 531  RSUExampleScenario.node[75].veinsmobility  speed  ETV
vector 536  RSUExampleScenario.node[76].veinsmobility  posx  ETV
vector 537  RSUExampleScenario.node[76].veinsmobility  posy  ETV
vector 532  RSUExampleScenario.node[75].veinsmobility  acceleration  ETV
vector 533  RSUExampleScenario.node[75].veinsmobility  co2emission  ETV
vector 538  RSUExampleScenario.node[76].veinsmobility  speed  ETV
vector 543  RSUExampleScenario.node[77].veinsmobility  posx  ETV
vector 544  RSUExampleScenario.node[77].veinsmobility  posy  ETV
vector 539  RSUExampleScenario.node[76].veinsmobility  acceleration  ETV
vector 540  RSUExampleScenario.node[76].veinsmobility  co2emission  ETV
vector 545  RSUExampleScenario.node[77].veinsmobility  speed  ETV
vector 550  RSUExampleScenario.node[78].veinsmobility  posx  ETV
vector 551  RSUExampleScenario.node[78].veinsmobility  posy  ETV
vector 546  RSUExampleScenario.node[77].veinsmobility  acceleration  ETV
vector 547  RSUExampleScenario.node[77].veinsmobility  co2emission  ETV
vector 552  RSUExampleScenario.node[78].veinsmobility  speed  ETV
vector 553  RSUExampleScenario.node[78].veinsmobility  acceleration  ETV
vector 554  RSUExampleScenario.node[78].veinsmobility  co2emission  ETV
vector 557  RSUExampleScenario.node[79].veinsmobility  posx  ETV
vector 558  RSUExampleScenario.node[79].veinsmobility  posy  ETV
vector 559  RSUExampleScenario.node[79].veinsmobility  speed  ETV
vector 564  RSUExampleScenario.node[80].veinsmobility  posx  ETV
vector 565  RSUExampleScenario.node[80].veinsmobility  posy  ETV
vector 560  RSUExampleScenario.node[79].veinsmobility  acceleration  ETV
vector 561  RSUExampleScenario.node[79].veinsmobility  co2emission  ETV
vector 566  RSUExampleScenario.node[80].veinsmobility  speed  ETV
vector 567  RSUExampleScenario.node[80].veinsmobility  acceleration  ETV
vector 568  RSUExampleScenario.node[80].veinsmobility  co2emission  ETV
vector 571  RSUExampleScenario.node[81].veinsmobility  posx  ETV
vector 572  RSUExampleScenario.node[81].veinsmobility  posy  ETV
vector 573  RSUExampleScenario.node[81].veinsmobility  speed  ETV
vector 578  RSUExampleScenario.node[82].veinsmobility  posx  ETV
vector 579  RSUExampleScenario.node[82].veinsmobility  posy  ETV
vector 574  RSUExampleScenario.node[81].veinsmobility  acceleration  ETV
vector 575  RSUExampleScenario.node[81].veinsmobility  co2emission  ETV
vector 580  RSUExampleScenario.node[82].veinsmobility  speed  ETV
vector 585  RSUExampleScenario.node[83].veinsmobility  posx  ETV
vector 586  RSUExampleScenario.node[83].veinsmobility  posy  ETV
vector 581  RSUExampleScenario.node[82].veinsmobility  acceleration  ETV
vector 582  RSUExampleScenario.node[82].veinsmobility  co2emission  ETV
vector 587  RSUExampleScenario.node[83].veinsmobility  speed  ETV
vector 588  RSUExampleScenario.node[83].veinsmobility  acceleration  ETV
vector 589  RSUExampleScenario.node[83].veinsmobility  co2emission  ETV
vector 592  RSUExampleScenario.node[84].veinsmobility  posx  ETV
vector 593  RSUExampleScenario.node[84].veinsmobility  posy  ETV
vector 594  RSUExampleScenario.node[84].veinsmobility  speed  ETV
vector 599  RSUExampleScenario.node[85].veinsmobility  posx  ETV
vector 600  RSUExampleScenario.node[85].veinsmobility  posy  ETV
vector 595  RSUExampleScenario.node[84].veinsmobility  acceleration  ETV
vector 596  RSUExampleScenario.node[84].veinsmobility  co2emission  ETV
vector 601  RSUExampleScenario.node[85].veinsmobility  speed  ETV
vector 602  RSUExampleScenario.node[85].veinsmobility  acceleration  ETV
vector 603  RSUExampleScenario.node[85].veinsmobility  co2emission  ETV
vector 606  RSUExampleScenario.node[86].veinsmobility  posx  ETV
vector 607  RSUExampleScenario.node[86].veinsmobility  posy  ETV
vector 608  RSUExampleScenario.node[86].veinsmobility  speed  ETV
vector 613  RSUExampleScenario.node[87].veinsmobility  posx  ETV
vector 614  RSUExampleScenario.node[87].veinsmobility  posy  ETV
vector 609  RSUExampleScenario.node[86].veinsmobility  acceleration  ETV
vector 610  RSUExampleScenario.node[86].veinsmobility  co2emission  ETV
vector 615  RSUExampleScenario.node[87].veinsmobility  speed  ETV
vector 616  RSUExampleScenario.node[87].veinsmobility  acceleration  ETV
vector 617  RSUExampleScenario.node[87].veinsmobility  co2emission  ETV
vector 620  RSUExampleScenario.node[88].veinsmobility  posx  ETV
vector 621  RSUExampleScenario.node[88].veinsmobility  posy  ETV
vector 622  RSUExampleScenario.node[88].veinsmobility  speed  ETV
vector 627  RSUExampleScenario.node[89].veinsmobility  posx  ETV
vector 628  RSUExampleScenario.node[89].veinsmobility  posy  ETV
vector 623  RSUExampleScenario.node[88].veinsmobility  acceleration  ETV
vector 624  RSUExampleScenario.node[88].veinsmobility  co2emission  ETV
vector 629  RSUExampleScenario.node[89].veinsmobility  speed  ETV
vector 630  RSUExampleScenario.node[89].veinsmobility  acceleration  ETV
vector 631  RSUExampleScenario.node[89].veinsmobility  co2emission  ETV
vector 634  RSUExampleScenario.node[90].veinsmobility  posx  ETV
vector 635  RSUExampleScenario.node[90].veinsmobility  posy  ETV
vector 636  RSUExampleScenario.node[90].veinsmobility  speed  ETV
vector 641  RSUExampleScenario.node[91].veinsmobility  posx  ETV
vector 642  RSUExampleScenario.node[91].veinsmobility  posy  ETV
vector 637  RSUExampleScenario.node[90].veinsmobility  acceleration  ETV
vector 638  RSUExampleScenario.node[90].veinsmobility  co2emission  ETV
vector 643  RSUExampleScenario.node[91].veinsmobility  speed  ETV
vector 648  RSUExampleScenario.node[92].veinsmobility  posx  ETV
vector 649  RSUExampleScenario.node[92].veinsmobility  posy  ETV
vector 644  RSUExampleScenario.node[91].veinsmobility  acceleration  ETV
vector 645  RSUExampleScenario.node[91].veinsmobility  co2emission  ETV
vector 650  RSUExampleScenario.node[92].veinsmobility  speed  ETV
vector 651  RSUExampleScenario.node[92].veinsmobility  acceleration  ETV
vector 652  RSUExampleScenario.node[92].veinsmobility  co2emission  ETV
vector 655  RSUExampleScenario.node[93].veinsmobility  posx  ETV
vector 656  RSUExampleScenario.node[93].veinsmobility  posy  ETV
vector 657  RSUExampleScenario.node[93].veinsmobility  speed  ETV
vector 658  RSUExampleScenario.node[93].veinsmobility  acceleration  ETV
vector 659  RSUExampleScenario.node[93].veinsmobility  co2emission  ETV
vector 662  RSUExampleScenario.node[94].veinsmobility  posx  ETV
vector 663  RSUExampleScenario.node[94].veinsmobility  posy  ETV
vector 664  RSUExampleScenario.node[94].veinsmobility  speed  ETV
vector 665  RSUExampleScenario.node[94].veinsmobility  acceleration  ETV
vector 666  RSUExampleScenario.node[94].veinsmobility  co2emission  ETV
vector 669  RSUExampleScenario.node[95].veinsmobility  posx  ETV
vector 670  RSUExampleScenario.node[95].veinsmobility  posy  ETV
vector 671  RSUExampleScenario.node[95].veinsmobility  speed  ETV
vector 672  RSUExampleScenario.node[95].veinsmobility  acceleration  ETV
vector 673  RSUExampleScenario.node[95].veinsmobility  co2emission  ETV
vector 676  RSUExampleScenario.node[96].veinsmobility  posx  ETV
vector 677  RSUExampleScenario.node[96].veinsmobility  posy  ETV
vector 678  RSUExampleScenario.node[96].veinsmobility  speed  ETV
vector 679  RSUExampleScenario.node[96].veinsmobility  acceleration  ETV
vector 680  RSUExampleScenario.node[96].veinsmobility  co2emission  ETV
vector 683  RSUExampleScenario.node[97].veinsmobility  posx  ETV
vector 684  RSUExampleScenario.node[97].veinsmobility  posy  ETV
vector 685  RSUExampleScenario.node[97].veinsmobility  speed  ETV
vector 686  RSUExampleScenario.node[97].veinsmobility  acceleration  ETV
vector 687  RSUExampleScenario.node[97].veinsmobility  co2emission  ETV
vector 690  RSUExampleScenario.node[98].veinsmobility  posx  ETV
vector 691  RSUExampleScenario.node[98].veinsmobility  posy  ETV
vector 692  RSUExampleScenario.node[98].veinsmobility  speed  ETV
vector 693  RSUExampleScenario.node[98].veinsmobility  acceleration  ETV
vector 694  RSUExampleScenario.node[98].veinsmobility  co2emission  ETV
vector 697  RSUExampleScenario.node[99].veinsmobility  posx  ETV
vector 698  RSUExampleScenario.node[99].veinsmobility  posy  ETV
vector 699  RSUExampleScenario.node[99].veinsmobility  speed  ETV
vector 700  RSUExampleScenario.node[99].veinsmobility  acceleration  ETV
vector 701  RSUExampleScenario.node[99].veinsmobility  co2emission  ETV
vector 704  RSUExampleScenario.node[100].veinsmobility  posx  ETV
vector 705  RSUExampleScenario.node[100].veinsmobility  posy  ETV
vector 706  RSUExampleScenario.node[100].veinsmobility  speed  ETV
vector 711  RSUExampleScenario.node[101].veinsmobility  posx  ETV
vector 712  RSUExampleScenario.node[101].veinsmobility  posy  ETV
vector 707  RSUExampleScenario.node[100].veinsmobility  acceleration  ETV
vector 708  RSUExampleScenario.node[100].veinsmobility  co2emission  ETV
vector 713  RSUExampleScenario.node[101].veinsmobility  speed  ETV
vector 718  RSUExampleScenario.node[102].veinsmobility  posx  ETV
vector 719  RSUExampleScenario.node[102].veinsmobility  posy  ETV
vector 714  RSUExampleScenario.node[101].veinsmobility  acceleration  ETV
vector 715  RSUExampleScenario.node[101].veinsmobility  co2emission  ETV
vector 720  RSUExampleScenario.node[102].veinsmobility  speed  ETV
vector 725  RSUExampleScenario.node[103].veinsmobility  posx  ETV
vector 726  RSUExampleScenario.node[103].veinsmobility  posy  ETV
vector 721  RSUExampleScenario.node[102].veinsmobility  acceleration  ETV
vector 722  RSUExampleScenario.node[102].veinsmobility  co2emission  ETV
vector 727  RSUExampleScenario.node[103].veinsmobility  speed  ETV
vector 732  RSUExampleScenario.node[104].veinsmobility  posx  ETV
vector 733  RSUExampleScenario.node[104].veinsmobility  posy  ETV
vector 728  RSUExampleScenario.node[103].veinsmobility  acceleration  ETV
vector 729  RSUExampleScenario.node[103].veinsmobility  co2emission  ETV
vector 734  RSUExampleScenario.node[104].veinsmobility  speed  ETV
vector 739  RSUExampleScenario.node[105].veinsmobility  posx  ETV
vector 740  RSUExampleScenario.node[105].veinsmobility  posy  ETV
vector 735  RSUExampleScenario.node[104].veinsmobility  acceleration  ETV
vector 736  RSUExampleScenario.node[104].veinsmobility  co2emission  ETV
vector 741  RSUExampleScenario.node[105].veinsmobility  speed  ETV
vector 746  RSUExampleScenario.node[106].veinsmobility  posx  ETV
vector 747  RSUExampleScenario.node[106].veinsmobility  posy  ETV
vector 742  RSUExampleScenario.node[105].veinsmobility  acceleration  ETV
vector 743  RSUExampleScenario.node[105].veinsmobility  co2emission  ETV
vector 748  RSUExampleScenario.node[106].veinsmobility  speed  ETV
vector 753  RSUExampleScenario.node[107].veinsmobility  posx  ETV
vector 754  RSUExampleScenario.node[107].veinsmobility  posy  ETV
vector 749  RSUExampleScenario.node[106].veinsmobility  acceleration  ETV
vector 750  RSUExampleScenario.node[106].veinsmobility  co2emission  ETV
vector 755  RSUExampleScenario.node[107].veinsmobility  speed  ETV
vector 760  RSUExampleScenario.node[108].veinsmobility  posx  ETV
vector 761  RSUExampleScenario.node[108].veinsmobility  posy  ETV
vector 756  RSUExampleScenario.node[107].veinsmobility  acceleration  ETV
vector 757  RSUExampleScenario.node[107].veinsmobility  co2emission  ETV
vector 762  RSUExampleScenario.node[108].veinsmobility  speed  ETV
vector 763  RSUExampleScenario.node[108].veinsmobility  acceleration  ETV
vector 764  RSUExampleScenario.node[108].veinsmobility  co2emission  ETV
vector 767  RSUExampleScenario.node[109].veinsmobility  posx  ETV
vector 768  RSUExampleScenario.node[109].veinsmobility  posy  ETV
vector 769  RSUExampleScenario.node[109].veinsmobility  speed  ETV
vector 774  RSUExampleScenario.node[110].veinsmobility  posx  ETV
vector 775  RSUExampleScenario.node[110].veinsmobility  posy  ETV
vector 770  RSUExampleScenario.node[109].veinsmobility  acceleration  ETV
vector 771  RSUExampleScenario.node[109].veinsmobility  co2emission  ETV
vector 776  RSUExampleScenario.node[110].veinsmobility  speed  ETV
vector 781  RSUExampleScenario.node[111].veinsmobility  posx  ETV
vector 782  RSUExampleScenario.node[111].veinsmobility  posy  ETV
vector 777  RSUExampleScenario.node[110].veinsmobility  acceleration  ETV
vector 778  RSUExampleScenario.node[110].veinsmobility  co2emission  ETV
vector 783  RSUExampleScenario.node[111].veinsmobility  speed  ETV
vector 788  RSUExampleScenario.node[112].veinsmobility  posx  ETV
vector 789  RSUExampleScenario.node[112].veinsmobility  posy  ETV
vector 784  RSUExampleScenario.node[111].veinsmobility  acceleration  ETV
vector 785  RSUExampleScenario.node[111].veinsmobility  co2emission  ETV
vector 790  RSUExampleScenario.node[112].veinsmobility  speed  ETV
vector 795  RSUExampleScenario.node[113].veinsmobility  posx  ETV
vector 796  RSUExampleScenario.node[113].veinsmobility  posy  ETV
vector 791  RSUExampleScenario.node[112].veinsmobility  acceleration  ETV
vector 792  RSUExampleScenario.node[112].veinsmobility  co2emission  ETV
vector 797  RSUExampleScenario.node[113].veinsmobility  speed  ETV
vector 798  RSUExampleScenario.node[113].veinsmobility  acceleration  ETV
vector 799  RSUExampleScenario.node[113].veinsmobility  co2emission  ETV
vector 802  RSUExampleScenario.node[114].veinsmobility  posx  ETV
vector 803  RSUExampleScenario.node[114].veinsmobility  posy  ETV
vector 804  RSUExampleScenario.node[114].veinsmobility  speed  ETV
vector 809  RSUExampleScenario.node[115].veinsmobility  posx  ETV
vector 810  RSUExampleScenario.node[115].veinsmobility  posy  ETV
vector 805  RSUExampleScenario.node[114].veinsmobility  acceleration  ETV
vector 806  RSUExampleScenario.node[114].veinsmobility  co2emission  ETV
vector 811  RSUExampleScenario.node[115].veinsmobility  speed  ETV
vector 816  RSUExampleScenario.node[116].veinsmobility  posx  ETV
vector 817  RSUExampleScenario.node[116].veinsmobility  posy  ETV
vector 812  RSUExampleScenario.node[115].veinsmobility  acceleration  ETV
vector 813  RSUExampleScenario.node[115].veinsmobility  co2emission  ETV
vector 818  RSUExampleScenario.node[116].veinsmobility  speed  ETV
vector 819  RSUExampleScenario.node[116].veinsmobility  acceleration  ETV
vector 820  RSUExampleScenario.node[116].veinsmobility  co2emission  ETV
vector 823  RSUExampleScenario.node[117].veinsmobility  posx  ETV
vector 824  RSUExampleScenario.node[117].veinsmobility  posy  ETV
vector 825  RSUExampleScenario.node[117].veinsmobility  speed  ETV
vector 830  RSUExampleScenario.node[118].veinsmobility  posx  ETV
vector 831  RSUExampleScenario.node[118].veinsmobility  posy  ETV
vector 826  RSUExampleScenario.node[117].veinsmobility  acceleration  ETV
vector 827  RSUExampleScenario.node[117].veinsmobility  co2emission  ETV
vector 832  RSUExampleScenario.node[118].veinsmobility  speed  ETV
vector 833  RSUExampleScenario.node[118].veinsmobility  acceleration  ETV
vector 834  RSUExampleScenario.node[118].veinsmobility  co2emission  ETV
vector 837  RSUExampleScenario.node[119].veinsmobility  posx  ETV
vector 838  RSUExampleScenario.node[119].veinsmobility  posy  ETV
vector 839  RSUExampleScenario.node[119].veinsmobility  speed  ETV
vector 840  RSUExampleScenario.node[119].veinsmobility  acceleration  ETV
vector 841  RSUExampleScenario.node[119].veinsmobility  co2emission  ETV
vector 844  RSUExampleScenario.node[120].veinsmobility  posx  ETV
vector 845  RSUExampleScenario.node[120].veinsmobility  posy  ETV
vector 846  RSUExampleScenario.node[120].veinsmobility  speed  ETV
vector 851  RSUExampleScenario.node[121].veinsmobility  posx  ETV
vector 852  RSUExampleScenario.node[121].veinsmobility  posy  ETV
vector 847  RSUExampleScenario.node[120].veinsmobility  acceleration  ETV
vector 848  RSUExampleScenario.node[120].veinsmobility  co2emission  ETV
vector 853  RSUExampleScenario.node[121].veinsmobility  speed  ETV
vector 854  RSUExampleScenario.node[121].veinsmobility  acceleration  ETV
vector 855  RSUExampleScenario.node[121].veinsmobility  co2emission  ETV
vector 858  RSUExampleScenario.node[122].veinsmobility  posx  ETV
vector 859  RSUExampleScenario.node[122].veinsmobility  posy  ETV
vector 860  RSUExampleScenario.node[122].veinsmobility  speed  ETV
vector 861  RSUExampleScenario.node[122].veinsmobility  acceleration  ETV
vector 862  RSUExampleScenario.node[122].veinsmobility  co2emission  ETV
vector 865  RSUExampleScenario.node[123].veinsmobility  posx  ETV
vector 866  RSUExampleScenario.node[123].veinsmobility  posy  ETV
vector 867  RSUExampleScenario.node[123].veinsmobility  speed  ETV
vector 872  RSUExampleScenario.node[124].veinsmobility  posx  ETV
vector 873  RSUExampleScenario.node[124].veinsmobility  posy  ETV
vector 868  RSUExampleScenario.node[123].veinsmobility  acceleration  ETV
vector 869  RSUExampleScenario.node[123].veinsmobility  co2emission  ETV
vector 874  RSUExampleScenario.node[124].veinsmobility  speed  ETV
vector 875  RSUExampleScenario.node[124].veinsmobility  acceleration  ETV
vector 876  RSUExampleScenario.node[124].veinsmobility  co2emission  ETV
vector 879  RSUExampleScenario.node[125].veinsmobility  posx  ETV
vector 880  RSUExampleScenario.node[125].veinsmobility  posy  ETV
vector 881  RSUExampleScenario.node[125].veinsmobility  speed  ETV
vector 882  RSUExampleScenario.node[125].veinsmobility  acceleration  ETV
vector 883  RSUExampleScenario.node[125].veinsmobility  co2emission  ETV
vector 886  RSUExampleScenario.node[126].veinsmobility  posx  ETV
vector 887  RSUExampleScenario.node[126].veinsmobility  posy  ETV
vector 888  RSUExampleScenario.node[126].veinsmobility  speed  ETV
vector 889  RSUExampleScenario.node[126].veinsmobility  acceleration  ETV
vector 890  RSUExampleScenario.node[126].veinsmobility  co2emission  ETV
vector 893  RSUExampleScenario.node[127].veinsmobility  posx  ETV
vector 894  RSUExampleScenario.node[127].veinsmobility  posy  ETV
vector 895  RSUExampleScenario.node[127].veinsmobility  speed  ETV
vector 896  RSUExampleScenario.node[127].veinsmobility  acceleration  ETV
vector 897  RSUExampleScenario.node[127].veinsmobility  co2emission  ETV
vector 900  RSUExampleScenario.node[128].veinsmobility  posx  ETV
vector 901  RSUExampleScenario.node[128].veinsmobility  posy  ETV
vector 902  RSUExampleScenario.node[128].veinsmobility  speed  ETV
vector 907  RSUExampleScenario.node[129].veinsmobility  posx  ETV
vector 908  RSUExampleScenario.node[129].veinsmobility  posy  ETV
vector 903  RSUExampleScenario.node[128].veinsmobility  acceleration  ETV
vector 904  RSUExampleScenario.node[128].veinsmobility  co2emission  ETV
vector 909  RSUExampleScenario.node[129].veinsmobility  speed  ETV
vector 910  RSUExampleScenario.node[129].veinsmobility  acceleration  ETV
vector 911  RSUExampleScenario.node[129].veinsmobility  co2emission  ETV
vector 914  RSUExampleScenario.node[130].veinsmobility  posx  ETV
vector 915  RSUExampleScenario.node[130].veinsmobility  posy  ETV
vector 916  RSUExampleScenario.node[130].veinsmobility  speed  ETV
vector 917  RSUExampleScenario.node[130].veinsmobility  acceleration  ETV
vector 918  RSUExampleScenario.node[130].veinsmobility  co2emission  ETV
vector 921  RSUExampleScenario.node[131].veinsmobility  posx  ETV
vector 922  RSUExampleScenario.node[131].veinsmobility  posy  ETV
vector 923  RSUExampleScenario.node[131].veinsmobility  speed  ETV
vector 928  RSUExampleScenario.node[132].veinsmobility  posx  ETV
vector 929  RSUExampleScenario.node[132].veinsmobility  posy  ETV
vector 924  RSUExampleScenario.node[131].veinsmobility  acceleration  ETV
vector 925  RSUExampleScenario.node[131].veinsmobility  co2emission  ETV
vector 930  RSUExampleScenario.node[132].veinsmobility  speed  ETV
vector 931  RSUExampleScenario.node[132].veinsmobility  acceleration  ETV
vector 932  RSUExampleScenario.node[132].veinsmobility  co2emission  ETV
vector 935  RSUExampleScenario.node[133].veinsmobility  posx  ETV
vector 936  RSUExampleScenario.node[133].veinsmobility  posy  ETV
vector 937  RSUExampleScenario.node[133].veinsmobility  speed  ETV
vector 938  RSUExampleScenario.node[133].veinsmobility  acceleration  ETV
vector 939  RSUExampleScenario.node[133].veinsmobility  co2emission  ETV
vector 942  RSUExampleScenario.node[134].veinsmobility  posx  ETV
vector 943  RSUExampleScenario.node[134].veinsmobility  posy  ETV
vector 944  RSUExampleScenario.node[134].veinsmobility  speed  ETV
vector 945  RSUExampleScenario.node[134].veinsmobility  acceleration  ETV
vector 946  RSUExampleScenario.node[134].veinsmobility  co2emission  ETV
vector 949  RSUExampleScenario.node[135].veinsmobility  posx  ETV
vector 950  RSUExampleScenario.node[135].veinsmobility  posy  ETV
vector 951  RSUExampleScenario.node[135].veinsmobility  speed  ETV
vector 952  RSUExampleScenario.node[135].veinsmobility  acceleration  ETV
vector 953  RSUExampleScenario.node[135].veinsmobility  co2emission  ETV
vector 956  RSUExampleScenario.node[136].veinsmobility  posx  ETV
vector 957  RSUExampleScenario.node[136].veinsmobility  posy  ETV
vector 958  RSUExampleScenario.node[136].veinsmobility  speed  ETV
vector 959  RSUExampleScenario.node[136].veinsmobility  acceleration  ETV
vector 960  RSUExampleScenario.node[136].veinsmobility  co2emission  ETV
vector 963  RSUExampleScenario.node[137].veinsmobility  posx  ETV
vector 964  RSUExampleScenario.node[137].veinsmobility  posy  ETV
vector 965  RSUExampleScenario.node[137].veinsmobility  speed  ETV
vector 966  RSUExampleScenario.node[137].veinsmobility  acceleration  ETV
vector 967  RSUExampleScenario.node[137].veinsmobility  co2emission  ETV
vector 970  RSUExampleScenario.node[138].veinsmobility  posx  ETV
vector 971  RSUExampleScenario.node[138].veinsmobility  posy  ETV
vector 972  RSUExampleScenario.node[138].veinsmobility  speed  ETV
vector 973  RSUExampleScenario.node[138].veinsmobility  acceleration  ETV
vector 974  RSUExampleScenario.node[138].veinsmobility  co2emission  ETV
vector 977  RSUExampleScenario.node[139].veinsmobility  posx  ETV
vector 978  RSUExampleScenario.node[139].veinsmobility  posy  ETV
vector 979  RSUExampleScenario.node[139].veinsmobility  speed  ETV
vector 980  RSUExampleScenario.node[139].veinsmobility  acceleration  ETV
vector 981  RSUExampleScenario.node[139].veinsmobility  co2emission  ETV
vector 984  RSUExampleScenario.node[140].veinsmobility  posx  ETV
vector 985  RSUExampleScenario.node[140].veinsmobility  posy  ETV
8	51013 7152 4 31037 3 329 327 0.973 33.37627103736 942.96090565696 8267.0651917963
7	58165 7261 4 31037 3 329 327 -4.5 5.171069820486 3.7168826858985 828.508675732
6	65426 7021 3 31037 2 329 328 0 27.768710480146 3401.190590981 61435.318024776
5	72447 8521 2 31037 1 329 329 1216.9926378084 2120.7953938423 499432.4873588 779665153.96529
4	80968 8687 2 31037 1 329 329 208.19688090263 2450.4278615726 427070.95949196 724903388.98802
vector 986  RSUExampleScenario.node[140].veinsmobility  speed  ETV
vector 987  RSUExampleScenario.node[140].veinsmobility  acceleration  ETV
vector 988  RSUExampleScenario.node[140].veinsmobility  co2emission  ETV
vector 991  RSUExampleScenario.node[141].veinsmobility  posx  ETV
vector 992  RSUExampleScenario.node[141].veinsmobility  posy  ETV
vector 993  RSUExampleScenario.node[141].veinsmobility  speed  ETV
vector 994  RSUExampleScenario.node[141].veinsmobility  acceleration  ETV
vector 995  RSUExampleScenario.node[141].veinsmobility  co2emission  ETV
vector 998  RSUExampleScenario.node[142].veinsmobility  posx  ETV
vector 999  RSUExampleScenario.node[142].veinsmobility  posy  ETV
vector 1000  RSUExampleScenario.node[142].veinsmobility  speed  ETV
vector 1001  RSUExampleScenario.node[142].veinsmobility  acceleration  ETV
vector 1002  RSUExampleScenario.node[142].veinsmobility  co2emission  ETV
vector 1005  RSUExampleScenario.node[143].veinsmobility  posx  ETV
vector 1006  RSUExampleScenario.node[143].veinsmobility  posy  ETV
vector 1007  RSUExampleScenario.node[143].veinsmobility  speed  ETV
vector 1008  RSUExampleScenario.node[143].veinsmobility  acceleration  ETV
vector 1009  RSUExampleScenario.node[143].veinsmobility  co2emission  ETV
vector 1012  RSUExampleScenario.node[144].veinsmobility  posx  ETV
vector 1013  RSUExampleScenario.node[144].veinsmobility  posy  ETV
vector 1014  RSUExampleScenario.node[144].veinsmobility  speed  ETV
vector 1015  RSUExampleScenario.node[144].veinsmobility  acceleration  ETV
vector 1016  RSUExampleScenario.node[144].veinsmobility  co2emission  ETV
50	91266 8980 15 38762 14 419 406 0.96694198694904 13.87747216524 899.94055122566 4092.9564176048
49	100246 9422 15 38762 14 419 406 -1.5 1.941955567383 4.5792731578659 308.98768159688
48	109668 9373 14 38762 13 419 407 0 27.779343798762 3400.4550729457 55270.094271369
47	119041 11353 13 38762 12 419 408 1216.6176285679 2120.9336745767 648461.80635122 1067864568.1084
46	130394 11319 13 38762 12 419 408 204.00853185786 2450.4068745655 544554.95922849 986427972.3302
15	141713 9270 6 38787 5 425 421 0.973 15.069549340392 977.65741512439 4502.2751028477
14	150983 9775 6 38787 5 425 421 -1.5 1.9322323121857 4.4961260855015 402.93999883737
13	160758 9866 5 38787 4 425 422 0 27.778188040318 3399.9197153074 53815.635727334
12	170624 11737 4 38787 3 425 423 1218.5737047996 2120.893814832 658009.48216817 1060587532.0999
11	182361 11712 4 38787 3 425 423 204.03513026016 2450.3140188782 559465.09023104 980787711.96759
22	194073 9390 8 38807 7 432 426 0.973 30.813682513993 1082.6397781176 8551.0724769661
21	203463 9896 8 38807 7 432 426 -4.5 5.0601393134906 7.4282301382618 862.29604702023
20	213359 9600 7 38807 6 432 427 0 27.777677725879 3404.1064354725 56848.79351079
19	222959 11899 6 38807 5 432 428 1217.8713650778 2120.5535120554 666981.38405861 1077529408.7767
18	234858 11890 6 38807 5 432 428 209.50663592445 2450.0954562895 572515.88447691 1006241773.0085
36	246748 9385 11 38818 10 434 425 0.973 29.783652142168 1000.2129186367 7485.7496766268
35	256133 9918 11 38818 10 434 425 -4.5 4.9322835165649 4.7663441484267 702.41804412285
34	266051 9554 10 38818 9 434 426 0 27.75182667057 3396.7590588098 57961.963358499
33	275605 11888 9 38818 8 434 427 1216.4861336388 2120.3836950734 664220.5689942 1071974432.3461
32	287493 11895 9 38818 8 434 427 211.88315296383 2450.4834751619 577055.4986921 1012180339.8523
vector 1019  RSUExampleScenario.node[145].veinsmobility  posx  ETV
vector 1020  RSUExampleScenario.node[145].veinsmobility  posy  ETV
vector 1021  RSUExampleScenario.node[145].veinsmobility  speed  ETV
vector 1026  RSUExampleScenario.node[146].veinsmobility  posx  ETV
vector 1027  RSUExampleScenario.node[146].veinsmobility  posy  ETV
vector 1022  RSUExampleScenario.node[145].veinsmobility  acceleration  ETV
vector 1023  RSUExampleScenario.node[145].veinsmobility  co2emission  ETV
vector 1033  RSUExampleScenario.node[147].veinsmobility  posx  ETV
vector 1034  RSUExampleScenario.node[147].veinsmobility  posy  ETV
vector 1028  RSUExampleScenario.node[146].veinsmobility  speed  ETV
vector 1029  RSUExampleScenario.node[146].veinsmobility  acceleration  ETV
vector 1030  RSUExampleScenario.node[146].veinsmobility  co2emission  ETV
vector 1035  RSUExampleScenario.node[147].veinsmobility  speed  ETV
vector 1040  RSUExampleScenario.node[148].veinsmobility  posx  ETV
vector 1041  RSUExampleScenario.node[148].veinsmobility  posy  ETV
vector 1036  RSUExampleScenario.node[147].veinsmobility  acceleration  ETV
vector 1037  RSUExampleScenario.node[147].veinsmobility  co2emission  ETV
vector 1047  RSUExampleScenario.node[149].veinsmobility  posx  ETV
vector 1048  RSUExampleScenario.node[149].veinsmobility  posy  ETV
vector 1042  RSUExampleScenario.node[148].veinsmobility  speed  ETV
vector 1043  RSUExampleScenario.node[148].veinsmobility  acceleration  ETV
vector 1044  RSUExampleScenario.node[148].veinsmobility  co2emission  ETV
vector 1049  RSUExampleScenario.node[149].veinsmobility  speed  ETV
vector 1054  RSUExampleScenario.node[150].veinsmobility  posx  ETV
vector 1055  RSUExampleScenario.node[150].veinsmobility  posy  ETV
vector 1050  RSUExampleScenario.node[149].veinsmobility  acceleration  ETV
vector 1051  RSUExampleScenario.node[149].veinsmobility  co2emission  ETV
vector 1061  RSUExampleScenario.node[151].veinsmobility  posx  ETV
vector 1062  RSUExampleScenario.node[151].veinsmobility  posy  ETV
vector 1056  RSUExampleScenario.node[150].veinsmobility  speed  ETV
vector 1068  RSUExampleScenario.node[152].veinsmobility  posx  ETV
vector 1069  RSUExampleScenario.node[152].veinsmobility  posy  ETV
vector 1057  RSUExampleScenario.node[150].veinsmobility  acceleration  ETV
vector 1058  RSUExampleScenario.node[150].veinsmobility  co2emission  ETV
vector 1063  RSUExampleScenario.node[151].veinsmobility  speed  ETV
64	301830 10218 19 39042 18 484 467 0.42274696554829 30.060606732485 1053.7803928919 6956.9865828465
63	312048 10581 19 39042 18 484 467 -4.5 5.2343739679549 3.6412100566805 790.55981564171
62	322629 10263 18 39042 17 484 468 0 27.773561144182 3395.1437444709 56521.899837134
61	332892 13097 17 39042 16 484 469 1216.7370004468 2120.9288486345 729200.54343195 1174866292.2921
60	345989 13144 17 39042 16 484 469 211.77923115832 2450.4866271248 599787.31320983 1058872707.9007
vector 1064  RSUExampleScenario.node[151].veinsmobility  acceleration  ETV
vector 1065  RSUExampleScenario.node[151].veinsmobility  co2emission  ETV
vector 1070  RSUExampleScenario.node[152].veinsmobility  speed  ETV
vector 1075  RSUExampleScenario.node[153].veinsmobility  posx  ETV
vector 1076  RSUExampleScenario.node[153].veinsmobility  posy  ETV
vector 1071  RSUExampleScenario.node[152].veinsmobility  acceleration  ETV
vector 1072  RSUExampleScenario.node[152].veinsmobility  co2emission  ETV
vector 1082  RSUExampleScenario.node[154].veinsmobility  posx  ETV
vector 1083  RSUExampleScenario.node[154].veinsmobility  posy  ETV
vector 1077  RSUExampleScenario.node[153].veinsmobility  speed  ETV
vector 1078  RSUExampleScenario.node[153].veinsmobility  acceleration  ETV
vector 1079  RSUExampleScenario.node[153].veinsmobility  co2emission  ETV
vector 1084  RSUExampleScenario.node[154].veinsmobility  speed  ETV
vector 1089  RSUExampleScenario.node[155].veinsmobility  posx  ETV
vector 1090  RSUExampleScenario.node[155].veinsmobility  posy  ETV
vector 1085  RSUExampleScenario.node[154].veinsmobility  acceleration  ETV
vector 1086  RSUExampleScenario.node[154].veinsmobility  co2emission  ETV
vector 1096  RSUExampleScenario.node[156].veinsmobility  posx  ETV
vector 1097  RSUExampleScenario.node[156].veinsmobility  posy  ETV
vector 1091  RSUExampleScenario.node[155].veinsmobility  speed  ETV
vector 1103  RSUExampleScenario.node[157].veinsmobility  posx  ETV
vector 1104  RSUExampleScenario.node[157].veinsmobility  posy  ETV
vector 1092  RSUExampleScenario.node[155].veinsmobility  acceleration  ETV
vector 1093  RSUExampleScenario.node[155].veinsmobility  co2emission  ETV
vector 1098  RSUExampleScenario.node[156].veinsmobility  speed  ETV
vector 1099  RSUExampleScenario.node[156].veinsmobility  acceleration  ETV
vector 1100  RSUExampleScenario.node[156].veinsmobility  co2emission  ETV
vector 1105  RSUExampleScenario.node[157].veinsmobility  speed  ETV
vector 1110  RSUExampleScenario.node[158].veinsmobility  posx  ETV
vector 1111  RSUExampleScenario.node[158].veinsmobility  posy  ETV
vector 1106  RSUExampleScenario.node[157].veinsmobility  acceleration  ETV
vector 1107  RSUExampleScenario.node[157].veinsmobility  co2emission  ETV
vector 1117  RSUExampleScenario.node[159].veinsmobility  posx  ETV
vector 1118  RSUExampleScenario.node[159].veinsmobility  posy  ETV
vector 1112  RSUExampleScenario.node[158].veinsmobility  speed  ETV
vector 1113  RSUExampleScenario.node[158].veinsmobility  acceleration  ETV
vector 1114  RSUExampleScenario.node[158].veinsmobility  co2emission  ETV
vector 1119  RSUExampleScenario.node[159].veinsmobility  speed  ETV
vector 1124  RSUExampleScenario.node[160].veinsmobility  posx  ETV
vector 1125  RSUExampleScenario.node[160].veinsmobility  posy  ETV
vector 1120  RSUExampleScenario.node[159].veinsmobility  acceleration  ETV
vector 1121  RSUExampleScenario.node[159].veinsmobility  co2emission  ETV
vector 1131  RSUExampleScenario.node[161].veinsmobility  posx  ETV
vector 1132  RSUExampleScenario.node[161].veinsmobility  posy  ETV
vector 1126  RSUExampleScenario.node[160].veinsmobility  speed  ETV
vector 1138  RSUExampleScenario.node[162].veinsmobility  posx  ETV
vector 1139  RSUExampleScenario.node[162].veinsmobility  posy  ETV
vector 1127  RSUExampleScenario.node[160].veinsmobility  acceleration  ETV
vector 1128  RSUExampleScenario.node[160].veinsmobility  co2emission  ETV
vector 1133  RSUExampleScenario.node[161].veinsmobility  speed  ETV
vector 1134  RSUExampleScenario.node[161].veinsmobility  acceleration  ETV
vector 1135  RSUExampleScenario.node[161].veinsmobility  co2emission  ETV
vector 1140  RSUExampleScenario.node[162].veinsmobility  speed  ETV
78	362860 10504 22 39101 21 499 479 -0.016174542265198 27.304206522558 1095.5442110914 8312.828091234
77	373364 11009 22 39101 21 499 479 -4.5 5.2636679013819 6.3650885155025 838.98953706905
76	384373 10609 21 39101 20 499 480 0 27.751222434836 3409.1960430336 57961.325392627
75	394982 13476 20 39101 19 499 481 1216.6423077127 2120.3821691675 747473.20141276 1203225342.3295
74	408458 13503 20 39101 19 499 481 206.65479104361 2450.4855983388 613822.34638359 1083177405.1237
vector 1145  RSUExampleScenario.node[163].veinsmobility  posx  ETV
vector 1146  RSUExampleScenario.node[163].veinsmobility  posy  ETV
vector 1141  RSUExampleScenario.node[162].veinsmobility  acceleration  ETV
vector 1142  RSUExampleScenario.node[162].veinsmobility  co2emission  ETV
vector 1152  RSUExampleScenario.node[164].veinsmobility  posx  ETV
vector 1153  RSUExampleScenario.node[164].veinsmobility  posy  ETV
vector 1147  RSUExampleScenario.node[163].veinsmobility  speed  ETV
vector 1148  RSUExampleScenario.node[163].veinsmobility  acceleration  ETV
vector 1149  RSUExampleScenario.node[163].veinsmobility  co2emission  ETV
vector 1154  RSUExampleScenario.node[164].veinsmobility  speed  ETV
vector 1159  RSUExampleScenario.node[165].veinsmobility  posx  ETV
vector 1160  RSUExampleScenario.node[165].veinsmobility  posy  ETV
vector 1155  RSUExampleScenario.node[164].veinsmobility  acceleration  ETV
vector 1156  RSUExampleScenario.node[164].veinsmobility  co2emission  ETV
vector 1166  RSUExampleScenario.node[166].veinsmobility  posx  ETV
vector 1167  RSUExampleScenario.node[166].veinsmobility  posy  ETV
vector 1161  RSUExampleScenario.node[165].veinsmobility  speed  ETV
vector 1173  RSUExampleScenario.node[167].veinsmobility  posx  ETV
vector 1174  RSUExampleScenario.node[167].veinsmobility  posy  ETV
vector 1162  RSUExampleScenario.node[165].veinsmobility  acceleration  ETV
vector 1163  RSUExampleScenario.node[165].veinsmobility  co2emission  ETV
vector 1168  RSUExampleScenario.node[166].veinsmobility  speed  ETV
92	423499 10659 26 39113 25 505 481 0.973 13.399770792372 967.06569352953 3818.791932878
91	434158 11062 26 39113 25 505 481 -1.5 1.8814712384032 4.1738464696479 325.52483714306
90	445220 11051 25 39113 24 505 482 0 27.772976816192 3399.6216169791 52725.818099675
89	456271 13567 24 39113 23 505 483 1216.2301454209 2120.8430251637 756183.87054439 1226972310.572
88	469838 13570 24 39113 23 505 483 203.95839746378 2450.1846176332 623171.99947067 1115942771.5501
vector 1169  RSUExampleScenario.node[166].veinsmobility  acceleration  ETV
vector 1170  RSUExampleScenario.node[166].veinsmobility  co2emission  ETV
vector 1175  RSUExampleScenario.node[167].veinsmobility  speed  ETV
vector 1180  RSUExampleScenario.node[168].veinsmobility  posx  ETV
vector 1181  RSUExampleScenario.node[168].veinsmobility  posy  ETV
vector 1176  RSUExampleScenario.node[167].veinsmobility  acceleration  ETV
vector 1177  RSUExampleScenario.node[167].veinsmobility  co2emission  ETV
vector 1187  RSUExampleScenario.node[169].veinsmobility  posx  ETV
vector 1188  RSUExampleScenario.node[169].veinsmobility  posy  ETV
vector 1182  RSUExampleScenario.node[168].veinsmobility  speed  ETV
vector 1183  RSUExampleScenario.node[168].veinsmobility  acceleration  ETV
vector 1184  RSUExampleScenario.node[168].veinsmobility  co2emission  ETV
vector 1189  RSUExampleScenario.node[169].veinsmobility  speed  ETV
vector 1194  RSUExampleScenario.node[170].veinsmobility  posx  ETV
vector 1195  RSUExampleScenario.node[170].veinsmobility  posy  ETV
vector 1190  RSUExampleScenario.node[169].veinsmobility  acceleration  ETV
vector 1191  RSUExampleScenario.node[169].veinsmobility  co2emission  ETV
vector 1201  RSUExampleScenario.node[171].veinsmobility  posx  ETV
vector 1202  RSUExampleScenario.node[171].veinsmobility  posy  ETV
vector 1196  RSUExampleScenario.node[170].veinsmobility  speed  ETV
vector 1197  RSUExampleScenario.node[170].veinsmobility  acceleration  ETV
vector 1198  RSUExampleScenario.node[170].veinsmobility  co2emission  ETV
vector 1203  RSUExampleScenario.node[171].veinsmobility  speed  ETV
vector 1208  RSUExampleScenario.node[172].veinsmobility  posx  ETV
vector 1209  RSUExampleScenario.node[172].veinsmobility  posy  ETV
vector 1204  RSUExampleScenario.node[171].veinsmobility  acceleration  ETV
vector 1205  RSUExampleScenario.node[171].veinsmobility  co2emission  ETV
85	485312 10843 23 39154 22 513 492 0.973 30.175226491725 1096.5388928525 7979.1771126934
84	496155 11423 23 39154 22 513 492 -4.5 5.0330712063611 5.0088783185814 770.73528425067
83	507578 11004 22 39154 21 513 493 0 27.749026262658 3398.0723681365 57492.375980188
82	518582 13880 21 39154 20 513 494 1216.1923579555 2120.4007445062 761994.35895966 1219368569.9492
81	532462 13754 21 39154 20 513 494 210.78290066589 2450.384855778 606950.31746576 1054236157.7586
vector 1215  RSUExampleScenario.node[173].veinsmobility  posx  ETV
vector 1216  RSUExampleScenario.node[173].veinsmobility  posy  ETV
vector 1210  RSUExampleScenario.node[172].veinsmobility  speed  ETV
vector 1211  RSUExampleScenario.node[172].veinsmobility  acceleration  ETV
vector 1212  RSUExampleScenario.node[172].veinsmobility  co2emission  ETV
vector 1217  RSUExampleScenario.node[173].veinsmobility  speed  ETV
vector 1222  RSUExampleScenario.node[174].veinsmobility  posx  ETV
vector 1223  RSUExampleScenario.node[174].veinsmobility  posy  ETV
vector 1218  RSUExampleScenario.node[173].veinsmobility  acceleration  ETV
vector 1219  RSUExampleScenario.node[173].veinsmobility  co2emission  ETV
vector 1229  RSUExampleScenario.node[175].veinsmobility  posx  ETV
vector 1230  RSUExampleScenario.node[175].veinsmobility  posy  ETV
vector 1224  RSUExampleScenario.node[174].veinsmobility  speed  ETV
vector 1225  RSUExampleScenario.node[174].veinsmobility  acceleration  ETV
vector 1226  RSUExampleScenario.node[174].veinsmobility  co2emission  ETV
vector 1231  RSUExampleScenario.node[175].veinsmobility  speed  ETV
43	547337 11123 13 39178 12 518 507 0.973 28.913408316741 1131.4309609554 8634.5615084458
42	558460 11845 13 39178 12 518 507 -4.5 5.3941155578475 5.9142196088586 791.07638963535
41	570305 11387 12 39178 11 518 508 0 27.763528873604 3402.4360833788 56685.975806094
40	581692 14279 11 39178 10 518 509 1216.5259606121 2120.3819291405 786673.20761285 1256313106.2476
39	595971 14270 11 39178 10 518 509 206.62600172777 2450.3526944926 640309.36922543 1098808408.6541
vector 1236  RSUExampleScenario.node[176].veinsmobility  posx  ETV
vector 1237  RSUExampleScenario.node[176].veinsmobility  posy  ETV
vector 1232  RSUExampleScenario.node[175].veinsmobility  acceleration  ETV
vector 1233  RSUExampleScenario.node[175].veinsmobility  co2emission  ETV
vector 1243  RSUExampleScenario.node[177].veinsmobility  posx  ETV
vector 1244  RSUExampleScenario.node[177].veinsmobility  posy  ETV
vector 1238  RSUExampleScenario.node[176].veinsmobility  speed  ETV
71	610726 10952 20 39186 19 520 502 0.973 24.611225694673 1092.4743175047 7121.3233699063
70	621678 11650 20 39186 19 520 502 -4.5 5.1608984425664 6.5090850620067 756.50199402667
69	633328 11284 19 39186 18 520 503 0 27.76204985423 3397.9872056279 54520.74725849
68	644612 14165 18 39186 17 520 504 1216.3100652602 2120.5161766419 783706.45365942 1260776890.1092
67	658777 14151 18 39186 17 520 504 209.35979104426 2450.3971729765 642103.5371184 1121995137.9519
vector 1239  RSUExampleScenario.node[176].veinsmobility  acceleration  ETV
vector 1240  RSUExampleScenario.node[176].veinsmobility  co2emission  ETV
vector 1245  RSUExampleScenario.node[177].veinsmobility  speed  ETV
vector 1250  RSUExampleScenario.node[178].veinsmobility  posx  ETV
vector 1251  RSUExampleScenario.node[178].veinsmobility  posy  ETV
vector 1246  RSUExampleScenario.node[177].veinsmobility  acceleration  ETV
vector 1247  RSUExampleScenario.node[177].veinsmobility  co2emission  ETV
57	673428 11151 17 50581 16 522 507 0.973 23.313052489229 1157.1118895874 6812.7199480025
56	684579 11770 17 50581 16 522 507 -4.5 4.864098702604 6.2651945534258 950.70451123715
55	696349 11414 16 50581 15 522 508 0 27.737601034408 3400.2396511587 53820.575153043
54	707763 14294 15 50581 14 522 509 1216.1249617655 2120.6620206097 786271.81552307 1256745526.8393
53	722057 14215 15 50581 14 522 509 210.9310253833 2450.0600857328 662455.60624318 1141672871.6892
vector 1252  RSUExampleScenario.node[178].veinsmobility  speed  ETV
vector 1257  RSUExampleScenario.node[179].veinsmobility  posx  ETV
vector 1258  RSUExampleScenario.node[179].veinsmobility  posy  ETV
vector 1253  RSUExampleScenario.node[178].veinsmobility  acceleration  ETV
vector 1254  RSUExampleScenario.node[178].veinsmobility  co2emission  ETV
vector 1264  RSUExampleScenario.node[180].veinsmobility  posx  ETV
vector 1265  RSUExampleScenario.node[180].veinsmobility  posy  ETV
vector 1259  RSUExampleScenario.node[179].veinsmobility  speed  ETV
vector 1260  RSUExampleScenario.node[179].veinsmobility  acceleration  ETV
vector 1261  RSUExampleScenario.node[179].veinsmobility  co2emission  ETV
vector 1266  RSUExampleScenario.node[180].veinsmobility  speed  ETV
vector 1271  RSUExampleScenario.node[181].veinsmobility  posx  ETV
vector 1272  RSUExampleScenario.node[181].veinsmobility  posy  ETV
vector 1267  RSUExampleScenario.node[180].veinsmobility  acceleration  ETV
vector 1268  RSUExampleScenario.node[180].veinsmobility  co2emission  ETV
vector 1273  RSUExampleScenario.node[181].veinsmobility  speed  ETV
vector 1278  RSUExampleScenario.node[182].veinsmobility  posx  ETV
vector 1279  RSUExampleScenario.node[182].veinsmobility  posy  ETV
vector 1274  RSUExampleScenario.node[181].veinsmobility  acceleration  ETV
vector 1275  RSUExampleScenario.node[181].veinsmobility  co2emission  ETV
vector 1285  RSUExampleScenario.node[183].veinsmobility  posx  ETV
vector 1286  RSUExampleScenario.node[183].veinsmobility  posy  ETV
vector 1280  RSUExampleScenario.node[182].veinsmobility  speed  ETV
vector 1281  RSUExampleScenario.node[182].veinsmobility  acceleration  ETV
vector 1282  RSUExampleScenario.node[182].veinsmobility  co2emission  ETV
vector 1287  RSUExampleScenario.node[183].veinsmobility  speed  ETV
vector 1292  RSUExampleScenario.node[184].veinsmobility  posx  ETV
vector 1293  RSUExampleScenario.node[184].veinsmobility  posy  ETV
vector 1288  RSUExampleScenario.node[183].veinsmobility  acceleration  ETV
vector 1289  RSUExampleScenario.node[183].veinsmobility  co2emission  ETV
vector 1294  RSUExampleScenario.node[184].veinsmobility  speed  ETV
vector 1299  RSUExampleScenario.node[185].veinsmobility  posx  ETV
vector 1300  RSUExampleScenario.node[185].veinsmobility  posy  ETV
vector 1295  RSUExampleScenario.node[184].veinsmobility  acceleration  ETV
vector 1296  RSUExampleScenario.node[184].veinsmobility  co2emission  ETV
vector 1301  RSUExampleScenario.node[185].veinsmobility  speed  ETV
vector 1306  RSUExampleScenario.node[186].veinsmobility  posx  ETV
vector 1307  RSUExampleScenario.node[186].veinsmobility  posy  ETV
vector 1302  RSUExampleScenario.node[185].veinsmobility  acceleration  ETV
vector 1303  RSUExampleScenario.node[185].veinsmobility  co2emission  ETV
vector 1308  RSUExampleScenario.node[186].veinsmobility  speed  ETV
vector 1313  RSUExampleScenario.node[187].veinsmobility  posx  ETV
vector 1314  RSUExampleScenario.node[187].veinsmobility  posy  ETV
vector 1309  RSUExampleScenario.node[186].veinsmobility  acceleration  ETV
vector 1310  RSUExampleScenario.node[186].veinsmobility  co2emission  ETV
vector 1315  RSUExampleScenario.node[187].veinsmobility  speed  ETV
vector 1320  RSUExampleScenario.node[188].veinsmobility  posx  ETV
vector 1321  RSUExampleScenario.node[188].veinsmobility  posy  ETV
vector 1316  RSUExampleScenario.node[187].veinsmobility  acceleration  ETV
vector 1317  RSUExampleScenario.node[187].veinsmobility  co2emission  ETV
29	739782 11885 10 50648 9 540 532 -0.59656284061144 30.360151436556 1154.0327738055 7846.9096204072
28	751667 12630 10 50648 9 540 532 -4.5 5.1396230011489 6.0700959876828 778.54914457867
27	764297 12170 9 50648 8 540 533 0 27.750909077181 3398.3107569812 56417.451272738
26	776467 14933 8 50648 7 540 534 1216.5653726263 2120.8036144441 814473.93432282 1283697565.9892
25	791400 14976 8 50648 7 540 534 208.71321961377 2450.3857637221 676130.77461849 1125564792.4995
vector 1322  RSUExampleScenario.node[188].veinsmobility  speed  ETV
vector 1327  RSUExampleScenario.node[189].veinsmobility  posx  ETV
vector 1328  RSUExampleScenario.node[189].veinsmobility  posy  ETV
vector 1323  RSUExampleScenario.node[188].veinsmobility  acceleration  ETV
vector 1324  RSUExampleScenario.node[188].veinsmobility  co2emission  ETV
113	806727 11951 31 50657 30 542 513 0.973 26.3503373151 1105.4043457502 7020.1345348306
112	818678 12583 31 50657 30 542 513 -4.5 4.9789350004401 5.0925246270483 718.55968936149
111	831261 12130 30 50657 29 542 514 0 27.767863670643 3399.6538343667 55685.55863983
110	843391 15044 29 50657 28 542 515 1217.4047065601 2120.4880381208 797937.68599111 1281901436.8293
109	858435 15006 29 50657 28 542 515 211.28616170224 2450.6204846838 674973.20386112 1179595982.6313
vector 1334  RSUExampleScenario.node[190].veinsmobility  posx  ETV
vector 1335  RSUExampleScenario.node[190].veinsmobility  posy  ETV
vector 1329  RSUExampleScenario.node[189].veinsmobility  speed  ETV
vector 1330  RSUExampleScenario.node[189].veinsmobility  acceleration  ETV
vector 1331  RSUExampleScenario.node[189].veinsmobility  co2emission  ETV
vector 1336  RSUExampleScenario.node[190].veinsmobility  speed  ETV
vector 1341  RSUExampleScenario.node[191].veinsmobility  posx  ETV
vector 1342  RSUExampleScenario.node[191].veinsmobility  posy  ETV
vector 1337  RSUExampleScenario.node[190].veinsmobility  acceleration  ETV
vector 1338  RSUExampleScenario.node[190].veinsmobility  co2emission  ETV
99	874143 11635 28 50665 27 545 519 0.77427503412539 25.647008905474 1117.426680389 6478.0392428668
98	885778 12252 28 50665 27 545 519 -4.5 5.2322489751224 8.4988534193568 706.28703564391
97	898030 11810 27 50665 26 545 520 0 27.773450012803 3407.7038346758 54910.029777627
96	909840 14681 26 50665 25 545 521 1217.9826692678 2120.6161878332 805006.53147636 1289804492.9098
95	924521 14637 26 50665 25 545 521 206.64127172052 2450.2129085162 678312.22020855 1179287850.682
vector 1343  RSUExampleScenario.node[191].veinsmobility  speed  ETV
vector 1348  RSUExampleScenario.node[192].veinsmobility  posx  ETV
vector 1349  RSUExampleScenario.node[192].veinsmobility  posy  ETV
vector 1344  RSUExampleScenario.node[191].veinsmobility  acceleration  ETV
vector 1345  RSUExampleScenario.node[191].veinsmobility  co2emission  ETV
127	939509 11958 34 50669 33 547 515 0.973 30.780858378532 1137.3983660925 8340.3685332686
126	951467 12650 34 50669 33 547 515 -4.5 5.0624798079953 6.1440492203421 797.75314246774
125	964117 12207 33 50669 32 547 516 0 27.756701981639 3399.9417167851 54572.984479276
124	976324 15094 32 50669 31 547 517 1216.4238670478 2120.8826141395 802173.17160937 1290139685.6061
123	991418 15110 32 50669 31 547 517 208.64649974799 2450.4245926182 684946.11307402 1199533729.4261
vector 1350  RSUExampleScenario.node[192].veinsmobility  speed  ETV
vector 1355  RSUExampleScenario.node[193].veinsmobility  posx  ETV
vector 1356  RSUExampleScenario.node[193].veinsmobility  posy  ETV
vector 1351  RSUExampleScenario.node[192].veinsmobility  acceleration  ETV
vector 1352  RSUExampleScenario.node[192].veinsmobility  co2emission  ETV
106	1006879 12096 30 50675 29 549 521 0.973 22.762163211316 1195.5363461505 7544.046786734
105	1018975 12794 30 50675 29 549 521 -4.5 5.084406721758 4.6141071045562 1013.8273581147
104	1031769 12487 29 50675 28 549 522 0 27.770110275866 3401.9324616964 53021.627486907
103	1044256 15226 28 50675 27 549 523 1218.6880871607 2120.8700924637 813241.64630755 1309314738.2471
102	1059482 15266 28 50675 27 549 523 210.35452441964 2450.2557112055 707633.3888879 1236164871.5287
vector 1357  RSUExampleScenario.node[193].veinsmobility  speed  ETV
vector 1362  RSUExampleScenario.node[194].veinsmobility  posx  ETV
vector 1363  RSUExampleScenario.node[194].veinsmobility  posy  ETV
vector 1358  RSUExampleScenario.node[193].veinsmobility  acceleration  ETV
vector 1359  RSUExampleScenario.node[193].veinsmobility  co2emission  ETV
vector 1364  RSUExampleScenario.node[194].veinsmobility  speed  ETV
134	1075167 12066 36 50689 35 552 518 0.973 32.750086351818 1120.6484937383 7823.8562304775
133	1087233 12773 36 50689 35 552 518 -4.5 5.2327192959444 7.4296396465444 729.05526228044
132	1100006 12302 35 50689 34 552 519 0 27.751253866982 3401.5063890154 54683.398626113
131	1112308 15202 34 50689 33 552 520 1217.6052960875 2120.9182919469 808133.55659114 1300945607.4644
130	1127510 15169 34 50689 33 552 520 205.87392873154 2450.6158359967 701419.70772997 1224645779.5761
vector 1369  RSUExampleScenario.node[195].veinsmobility  posx  ETV
vector 1370  RSUExampleScenario.node[195].veinsmobility  posy  ETV
vector 1365  RSUExampleScenario.node[194].veinsmobility  acceleration  ETV
vector 1366  RSUExampleScenario.node[194].veinsmobility  co2emission  ETV
vector 1371  RSUExampleScenario.node[195].veinsmobility  speed  ETV
vector 1376  RSUExampleScenario.node[196].veinsmobility  posx  ETV
vector 1377  RSUExampleScenario.node[196].veinsmobility  posy  ETV
vector 1372  RSUExampleScenario.node[195].veinsmobility  acceleration  ETV
vector 1373  RSUExampleScenario.node[195].veinsmobility  co2emission  ETV
vector 1378  RSUExampleScenario.node[196].veinsmobility  speed  ETV
vector 1383  RSUExampleScenario.node[197].veinsmobility  posx  ETV
vector 1384  RSUExampleScenario.node[197].veinsmobility  posy  ETV
vector 1379  RSUExampleScenario.node[196].veinsmobility  acceleration  ETV
vector 1380  RSUExampleScenario.node[196].veinsmobility  co2emission  ETV
239	1143664 11838 63 50709 62 557 496 0.973 31.059765563122 1284.6813284638 12529.729554189
238	1155502 12213 63 50709 62 557 496 -4.5 5.1179270274472 7.799543965127 1213.8989770824
237	1167715 11809 62 50709 61 557 497 0 27.754512508195 3403.1799106839 56678.480330024
236	1179524 14653 61 50709 60 557 498 1218.2459568903 2120.4156243578 771259.17655547 1234397305.4702
235	1194177 14609 61 50709 60 557 498 209.48749060929 2450.315570122 689086.00149964 1221233101.9616
vector 1385  RSUExampleScenario.node[197].veinsmobility  speed  ETV
[...]
vector 2728  RSUExampleScenario.node[389].veinsmobility  posy  ETV
vector 2723  RSUExampleScenario.node[388].veinsmobility  acceleration  ETV
vector 2724  RSUExampleScenario.node[388].veinsmobility  co2emission  ETV
vector 2729  RSUExampleScenario.node[389].veinsmobility  speed  ETV
vector 2730  RSUExampleScenario.node[389].veinsmobility  acceleration  ETV
vector 2731  RSUExampleScenario.node[389].veinsmobility  co2emission  ETV
2479	34519146 16624 141781 150404 1499 2100 602 0.973 32.475487459734 1174.6499317653 6985.560570314
2478	34535770 18003 141781 150404 1499 2100 602 -4.5 5.1564725863839 6.8260424605237 682.63332577431
2477	34553773 17470 141780 150404 1498 2100 603 0 27.777363369344 3407.4684102716 61300.395133544
2476	34571243 19884 141779 150404 1497 2100 604 1217.1159517579 2120.6779212411 1002688.6608719 1690093610.8529
2475	34591127 19775 141779 150404 1497 2100 604 208.10877479357 2450.0912041023 1233818.5347947 2750805046.6202
2486	34610902 17745 141785 150462 1501 2139 639 0.973 26.052885092495 1232.2790147829 7218.4821316057
2485	34628647 19393 141785 150462 1501 2139 639 -4.5 5.0444391433772 4.5195841541047 750.52840965209
2484	34648040 18865 141783 150462 1500 2139 640 0 27.765267834896 3402.768157358 61513.921244218
2483	34666905 21117 141781 150462 1499 2139 641 1217.3207824482 2120.7593728332 1064132.2613852 1792804419.4138
2482	34688022 21118 141781 150462 1499 2139 641 208.78766117955 2450.3541455967 1327518.0289596 2985770137.9882
2493	34709140 17933 141786 150468 1502 2143 642 0.973 31.0676906691 1220.3299623381 7318.4519354661
2492	34727073 19470 141786 150468 1502 2143 642 -4.5 5.0356003866065 7.703186398824 662.11509286995
2491	34746543 18887 141785 150468 1501 2143 643 0 27.777696526377 3409.7770318781 61285.573851358
2490	34765430 21199 141783 150468 1500 2143 644 1216.1019877493 2120.6138553778 1068153.0919433 1798235376.3381
2489	34786629 21172 141783 150468 1500 2143 644 206.77665599925 2450.2702214556 1342604.7571062 3041142052.1737
2500	34807801 17965 141787 150473 1503 2146 644 0.34445566156552 30.764656166311 1217.8407971523 7237.2416160125
2499	34825766 19484 141787 150473 1503 2146 644 -4.5 5.1552495504078 9.7912359236498 624.3944365554
2498	34845250 18905 141786 150473 1502 2146 645 0 27.763402053043 3410.3783556818 61098.373456315
2497	34864155 21277 141785 150473 1501 2146 646 1218.3909136755 2120.7454286534 1059170.9711583 1755879963.6674
2496	34885432 21218 141785 150473 1501 2146 646 205.9311974484 2450.1486243967 1347076.1505206 3053459677.2434
2507	34906650 18827 141790 150521 1505 2177 673 0.973 28.695182753535 1252.7615262517 7095.9119804086
2506	34925477 20605 141790 150521 1505 2177 673 -4.1023912867624 5.3659208246507 8.5634493182741 623.56953800324
2505	34946082 19964 141788 150521 1504 2177 674 0 27.770648511611 3403.8129445155 61619.45830875
2504	34966046 22187 141787 150521 1503 2177 675 1218.1731438842 2120.8576814076 1110410.7303413 1846738749.0752
2503	34988233 22243 141787 150521 1503 2177 675 209.44701415184 2450.5034771189 1420463.5294625 3234052938.886
2514	35010476 18849 141792 150524 1507 2180 674 0.973 32.295401211318 1234.7429668513 7029.9884774482
2513	35029325 20593 141792 150524 1507 2180 674 -4.5 5.0540311678075 8.3376298032043 592.73560503552
2512	35049918 19983 141791 150524 1506 2180 675 0 27.766936987713 3404.1267526804 61090.749144793
2511	35069901 22252 141790 150524 1505 2180 676 1216.1241207933 2120.3481805325 1104709.2731164 1823861083.6313
2510	35092153 22257 141790 150524 1505 2180 676 209.4900456164 2450.6349660762 1420797.2465278 3231946196.2368
2521	35114410 18901 141796 150527 1509 2183 675 0.973 31.118896044482 1209.6434940486 6662.5405129734
2520	35133311 20662 141796 150527 1509 2183 675 -4.5 4.9577988879871 9.8984938254376 516.03813949822
2519	35153973 20051 141793 150527 1508 2183 676 0 27.766988293948 3404.962253512 61697.927793989
2518	35174024 22290 141792 150527 1507 2183 677 1216.0813866435 2120.6700267699 1100295.0948364 1805640932.4079
2517	35196314 22305 141792 150527 1507 2183 677 209.43329358066 2450.5406372503 1422445.1277343 3234092660.1004
2528	35218619 19262 141801 150563 1513 2206 694 0.973 32.306030134288 1272.3323000894 7115.5193165581
2527	35237881 21425 141801 150563 1513 2206 694 -4.5 5.1133516530583 11.147315373277 643.86551395877
2526	35259306 20776 141800 150563 1512 2206 695 0 27.720238726027 3407.2324129653 62492.96245853
2525	35280082 22912 141799 150563 1511 2206 696 1217.2781178178 2120.6929013301 1129679.2348326 1850671243.0949
2524	35302994 22770 141799 150563 1511 2206 696 208.09680964297 2450.2124496577 1468460.8184233 3343992007.1206
2535	35325764 19384 143769 150568 1517 2209 693 0.973 31.335358018429 1242.2187041346 6569.7488270045
2534	35345148 21370 143769 150568 1517 2209 693 -4.0923540425114 5.2611612809722 9.9979307714667 517.14627106793
2533	35366518 20726 143498 150568 1516 2209 694 0 27.778515180508 3404.2788824228 62021.466260433
2532	35387244 22890 141804 150568 1515 2209 695 1218.1223700047 2120.825363202 1127178.5323119 1845363210.3138
2531	35410134 22893 141804 150568 1515 2209 695 210.74685839307 2450.452727687 1466991.3977212 3342108719.4483
2542	35433027 16955 143980 150637 1645 2262 618 0.973 30.707273071772 1184.8905572942 6957.3780099366
2541	35449982 18677 143980 150637 1645 2262 618 -4.5 5.0168295066911 4.6741906084098 672.64066643304
2540	35468659 18121 143979 150637 1644 2262 619 0 27.744008434936 3404.3154693908 62438.93046863
2539	35486780 20428 143976 150637 1643 2262 620 1217.5828661816 2120.6039949637 1028014.1874045 1729294519.8533
2538	35507208 20420 143976 150637 1643 2262 620 208.73843601579 2450.0744898195 1275055.5457113 2855563064.8491
2549	35527628 17089 143981 150642 1646 2266 621 0.973 28.238955295135 1204.2439527435 7438.0751265633
2548	35544717 18740 143981 150642 1646 2266 621 -4.5 5.0124445055425 5.181744121438 677.21665890818
2547	35563457 18198 143980 150642 1645 2266 622 0 27.777921692878 3401.6384452432 61796.56045114
2546	35581655 20486 143979 150642 1644 2266 623 1217.5158114424 2120.7136477865 1030409.440593 1727513163.097
2545	35602141 20468 143979 150642 1644 2266 623 211.25435380044 2450.334598118 1295464.5668347 2931858846.0226
2556	35622609 17147 143983 150646 1648 2270 623 0.973 29.472705597318 1190.4759423796 6986.3019571926
2555	35639756 18808 143983 150646 1648 2270 623 -4.5 5.1017520798743 5.5368443449713 620.93514542838
2554	35658564 18260 143982 150646 1647 2270 624 0 27.777789117247 3408.3277497811 61559.513885608
2553	35676824 20530 143981 150646 1646 2270 625 1217.6870866278 2120.9108010279 1031017.5019169 1723207312.0769
2552	35697354 20585 143981 150646 1646 2270 625 206.69247397874 2450.5704955255 1298776.148096 2941068799.3056
2563	35717939 18133 143984 150704 1649 2312 664 0.973 31.046072335132 1309.2896604393 8549.6475751072
2562	35736072 20334 143984 150704 1649 2312 664 -4.5 4.8720612450398 4.004975261584 840.511946815
2561	35756406 19766 143983 150704 1648 2312 665 0 27.735528060561 3397.981259062 60979.524347958
2560	35776172 21811 143982 150704 1647 2312 666 1216.5360809043 2120.6591849485 1108236.8134543 1872678286.4873
2559	35797983 21859 143982 150704 1647 2312 666 211.86946409964 2450.238488132 1393766.0379375 3155724629.0836
2570	35819842 18088 143987 150708 1651 2316 666 0.973 34.461509726774 1284.8125359824 8193.4819961562
2569	35837930 20383 143987 150708 1651 2316 666 -3.5960211850321 5.121090242062 7.4965848576874 699.9519734845
2568	35858313 19767 143985 150708 1650 2316 667 0 27.773905694922 3402.9971003215 61165.098014058
2567	35878080 21928 143984 150708 1649 2316 668 1218.5278998446 2120.5241120141 1102156.3035443 1841961281.0012
2566	35900008 21921 143984 150708 1649 2316 668 205.9276142423 2450.5318223668 1401666.7590648 3188468918.9732
2577	35921929 18155 143989 150710 1652 2318 667 0.64877903712758 33.685409924153 1280.5774144011 7979.1455415198
2576	35940084 20369 143989 150710 1652 2318 667 -4.5 4.8973011798598 6.2520380886198 708.2569585923
2575	35960453 19814 143987 150710 1651 2318 668 0 27.723045590678 3397.1884511496 60069.920910194
2574	35980267 22038 143985 150710 1650 2318 669 1216.066353173 2120.661913597 1096412.1698247 1817180870.5553
2573	36002305 21995 143985 150710 1650 2318 669 210.73440491664 2450.2735018197 1405481.6500274 3198693583.3971
2584	36024300 18390 143993 150722 1654 2327 674 0.973 18.684193235446 1171.5293341804 4491.2451906246
2583	36042690 20650 143993 150722 1654 2327 674 -2.5 2.9157327042846 3.7649234986979 327.24456720798
2582	36063340 20002 143992 150722 1653 2327 675 0 27.773806183477 3400.8991646917 58433.889586577
2581	36083342 22260 143989 150722 1652 2327 676 1217.3019093433 2120.9520137841 1101865.7630908 1815661637.4258
2580	36105602 22243 143989 150722 1652 2327 676 207.39134544355 2450.6463543036 1417253.6585751 3222876711.6023
2591	36127845 19112 143998 150754 1656 2350 695 -0.34454709640611 19.650226971845 1182.4247506914 4483.2642150215
2590	36146957 21502 143998 150754 1656 2350 695 -2.4933875502984 2.7786631827848 5.256693795189 303.26585960369
2589	36168459 20781 143994 150754 1655 2350 696 0 27.76410031535 3404.438102337 60455.068433138
2588	36189240 22745 143993 150754 1654 2350 697 1216.5996687356 2120.4587964779 1132657.993505 1858848756.0149
2587	36211985 22776 143993 150754 1654 2350 697 205.50751055114 2450.6133084612 1467933.5258235 3347070248.0702
2598	36234761 19171 144000 150760 1658 2354 697 0.973 17.698165571371 1172.1889920644 4396.1785815586
2597	36253932 21536 144000 150760 1658 2354 697 -2.4812688905292 2.759265978568 4.7021998709037 273.86744624855
2596	36275468 20812 143999 150760 1657 2354 698 0 27.764926837508 3400.641810896 60008.092857118
2595	36296280 23011 143998 150760 1656 2354 699 1218.0279613072 2120.761447276 1135135.2193033 1861843905.5254
2594	36319291 23003 143998 150760 1656 2354 699 207.75089091761 2450.2442884651 1472578.469253 3358660558.7019
2605	36342294 19315 144004 150765 1661 2359 699 0.48101896084783 20.434778729407 1189.6484262489 4529.0801083073
2604	36361609 21542 144004 150765 1661 2359 699 -2.5 2.9175973924098 7.3228811513543 320.63647911383
2603	36383151 20926 144002 150765 1660 2359 700 0 27.775392968127 3406.0105040364 59815.707849677
2602	36404077 23018 144001 150765 1659 2359 701 1218.8489566306 2120.7655377863 1135770.4556016 1858741741.0276
2601	36427095 23100 144001 150765 1659 2359 701 204.31980953924 2450.24652834 1472600.5744157 3353033602.3263
2612	36450195 19450 146484 150776 1664 2368 705 0.973 18.44176207652 1212.8060229944 4589.7015402396
2611	36469645 21832 146484 150776 1664 2368 705 -2.5 2.8497443530799 6.637545836267 357.51901604609
2610	36491477 21169 146142 150776 1663 2368 706 0 27.77550382692 3405.2337495488 60539.092968606
2609	36512646 23224 144006 150776 1662 2368 707 1216.1745305881 2120.4682040848 1142900.5267215 1865631555.5131
2608	36535870 23303 144006 150776 1662 2368 707 205.97341941914 2450.3478770232 1490280.2985404 3396266387.0496
2619	36559173 19664 146490 150784 1668 2373 706 0.973 20.417971719442 1204.1340032338 4512.4651246043
2618	36578837 21832 146490 150784 1668 2373 706 -2.4952379738761 2.8153437847632 8.1477539102431 315.8485792107
2617	36600669 21137 146487 150784 1667 2373 707 0 27.772240307529 3406.9451370646 60103.669695629
2616	36621806 23319 146486 150784 1666 2373 708 1217.2490155939 2120.3663108852 1143344.4863373 1864741417.0291
2615	36645125 23276 146486 150784 1666 2373 708 205.12680900691 2450.4672748334 1491862.843056 3401602962.9892
2626	36668401 17238 146945 150854 1797 2426 630 0.92036359416514 20.364473421984 1139.1533333986 4657.0136383895
2625	36685639 19082 146945 150854 1797 2426 630 -2.5 2.8702887975289 5.4402137149772 400.51172174824
2624	36704721 18562 146943 150854 1796 2426 631 0 27.776640666313 3399.7532535657 60633.189622239
2623	36723283 20822 146942 150854 1795 2426 632 1216.4609788852 2120.6937417183 1040348.301687 1738419897.0018
2622	36744105 20831 146942 150854 1795 2426 632 206.42993538093 2450.1305763203 1300807.0504406 2920769146.8194
2633	36764936 17645 146947 150878 1799 2444 646 0.50144073884979 18.307177527177 1159.552674956 4647.3972980794
2632	36782581 19640 146947 150878 1799 2444 646 -2.5 2.7546874801169 7.1746797834607 388.98908865602
2631	36802221 19085 146946 150878 1798 2444 647 0 27.775145387647 3403.7350510089 60426.205205814
2630	36821306 21282 146945 150878 1797 2444 648 1216.1251284806 2120.8439292908 1065889.9559575 1779943824.059
2629	36842588 21228 146945 150878 1797 2444 648 205.93734626961 2450.6020807783 1340423.3900138 3019210040.1519
2640	36863816 16293 147554 150973 1927 2527 601 0.973 21.07224125328 1142.6631828223 5044.2745158757
2639	36880109 18010 147554 150973 1927 2527 601 -2.5 2.8942080745124 4.3337327052288 464.09055955646
2638	36898119 17563 147553 150973 1926 2527 602 0 27.776714086349 3400.6179036653 59096.043872962
2637	36915682 19795 147552 150973 1925 2527 603 1217.6929992456 2120.4685174478 991413.92073713 1659206207.5269
2636	36935477 19815 147552 150973 1925 2527 603 207.72011203703 2450.3166764708 1192549.7900347 2602407751.3422
2647	36955292 16383 147559 150977 1929 2531 603 0.973 18.510441994284 1100.938896515 4535.7997379303
2646	36971675 18037 147559 150977 1929 2531 603 -2.5 2.8681447670888 5.5614039144397 344.6818817248
2645	36989712 17505 147555 150977 1928 2531 604 0 27.777666079454 3403.6771079498 60091.189669189
2644	37007217 19937 147554 150977 1927 2531 605 1218.0087709641 2120.4008854842 1002475.8833524 1687884363.4167
2643	37027154 19887 147554 150977 1927 2531 605 205.88474181527 2450.4484751658 1229081.4622511 2739055121.6724
2654	37047041 17496 147562 151029 1931 2576 646 0.973 19.255606445845 1176.614255209 4857.9986760066
2653	37064537 19655 147562 151029 1931 2576 646 -2.5 2.752245249005 6.379890282874 401.65454001027
2652	37084192 19128 147560 151029 1930 2576 647 0 27.766890948731 3408.6661762298 59816.122774829
2651	37103320 21344 147559 151029 1929 2576 648 1218.1797527689 2120.6270486088 1082328.6807925 1836995535.4263
2650	37124664 21239 147559 151029 1929 2576 648 204.79306941177 2450.4693844558 1337312.6779882 3006533944.6599
2661	37145903 17578 147566 151033 1934 2580 647 0.64524057404838 17.315964596465 1168.6291954738 4834.3866310657
2660	37163481 19659 147566 151033 1934 2580 647 -2.5 2.8002880195501 5.8610295401601 372.29064350879
2659	37183140 19115 147565 151033 1933 2580 648 0 27.766531133539 3403.5434634121 59466.804230086
2658	37202255 21381 147564 151033 1932 2580 649 1218.9242691556 2120.7913206015 1073887.252349 1804840421.0509
2657	37223636 21378 147564 151033 1932 2580 649 204.76118086418 2450.359200203 1335255.4047785 2995237586.7896
2668	37245014 17750 147569 151041 1936 2587 652 0.973 20.507427787518 1152.850136512 4562.6400534012
2667	37262764 19858 147569 151041 1936 2587 652 -2.5 2.7948917792196 4.8082371233764 331.90025053009
2666	37282622 19235 147568 151041 1935 2587 653 0 27.777655779473 3399.8949507421 60141.781480467
2665	37301857 21387 147566 151041 1934 2587 654 1217.5650142767 2120.5319205569 1081806.6114322 1818163264.4594
2664	37323244 21541 147566 151041 1934 2587 654 207.77704408288 2450.2217994019 1351361.6191674 3035516065.7044
2675	37344785 17903 147573 151046 1938 2592 655 0.973 20.273757484182 1187.1098039821 4942.4397028637
2674	37362688 19969 147573 151046 1938 2592 655 -2.5 2.7742097236996 8.0929723161929 391.36645496228
2673	37382657 19422 147570 151046 1937 2592 656 0 27.775239493645 3409.8233669971 59304.235694042
2672	37402079 21649 147569 151046 1936 2592 657 1217.6607527602 2120.6066603642 1078729.0464206 1795200935.1628
2671	37423728 21639 147569 151046 1936 2592 657 204.15815700847 2450.4536809879 1366933.8749277 3100563594.2878
2682	37445367 18336 147582 151064 1943 2610 668 0.973 17.737331823918 1198.2526677806 4950.9887803609
2681	37463703 20461 147582 151064 1943 2610 668 -2.5 2.7812678993423 8.1707325990653 373.24477544347
2680	37484164 19806 147580 151064 1942 2610 669 0 27.772597123386 3408.085920764 60189.639539247
2679	37503970 21934 147579 151064 1941 2610 670 1217.7358420976 2120.8331492562 1102568.3795069 1838962598.0733
2678	37525904 21753 147579 151064 1941 2610 670 204.75491820194 2450.3545677504 1405681.3502078 3204803642.0867
2689	37547657 16935 149105 151148 2072 2694 623 0.973 18.379110158513 1219.396450658 6104.6547656198
2688	37564592 18782 149105 151148 2072 2694 623 -2.5 2.9338060676365 4.7816705410162 523.44495831958
2687	37583374 18375 149103 151148 2071 2694 624 0 27.77993463981 3406.3915118756 57553.646457769
2686	37601749 20558 149102 151148 2070 2694 625 1216.8956066826 2120.4661351526 1044623.8801526 1771710795.7168
2685	37622307 20538 149102 151148 2070 2694 625 205.04141402838 2450.5809932865 1275910.2190332 2849394091.938
2696	37642845 17061 149109 151154 2074 2700 627 0.75539141023962 19.585937581848 1202.1073631107 5740.8385509658
2695	37659906 18846 149109 151154 2074 2700 627 -2.5 2.7984487051063 4.6452072235659 468.72062183053
2694	37678752 18376 149107 151154 2073 2700 628 0 27.759429493725 3405.6615171503 56863.592246586
2693	37697128 20723 149105 151154 2072 2700 629 1219.0623235796 2120.6126146028 1051119.7057386 1782916528.3406
2692	37717851 20728 149105 151154 2072 2700 629 205.10377846262 2450.6481790426 1285813.9920375 2874659034.6542
2703	37738579 17120 149112 151157 2076 2703 628 0.973 18.349583554293 1186.7905360867 5342.6446437851
2702	37755699 18882 149112 151157 2076 2703 628 -2.5 2.7487964465302 3.8871038143954 450.54300020781
2701	37774581 18396 149110 151157 2075 2703 629 0 27.775665786408 3402.4238087313 56520.815696054
2700	37792977 20749 149109 151157 2074 2703 630 1216.5041517885 2120.8860288048 1049730.6166579 1778517126.0877
2699	37813726 20714 149109 151157 2074 2703 630 206.44708698941 2450.5553638611 1304252.6887448 2956633073.7344
2710	37834440 17108 149114 151160 2078 2706 629 0.973 17.938913753403 1144.9238825301 4728.7302642071
2709	37851548 18981 149114 151160 2078 2706 629 -2.5 2.7443053712741 3.9935043751883 370.53368187735
2708	37870529 18380 149113 151160 2077 2706 630 0 27.762716054014 3399.7221202315 58043.228470825
2707	37888909 20695 149112 151160 2076 2706 631 1218.9268518938 2120.8932939582 1047636.0321811 1768290374.5486
2706	37909604 20780 149112 151160 2076 2706 631 207.39385012013 2450.4681644189 1307935.4580048 2969951052.2878
2717	37930384 18053 149118 151189 2080 2735 656 0.973 20.335432674506 1163.1024055703 4754.5275557025
2716	37948437 19985 149118 151189 2080 2735 656 -2.5 2.7836222534103 4.4686328948872 339.75027930475
2715	37968422 19354 149116 151189 2079 2735 657 0 27.777320610081 3403.0693436089 59420.276440071
2714	37987776 21670 149114 151189 2078 2735 658 1216.1678254614 2120.6688924376 1100615.1319705 1873724533.0836
2713	38009446 21669 149114 151189 2078 2735 658 205.94377425825 2450.6159294625 1379981.3651197 3148754651.0381
2724	38031115 18350 149120 151202 2082 2748 667 0.973 17.652286354291 1193.9245238496 4879.1481811925
2723	38049465 20401 149120 151202 2082 2748 667 -2.5 2.7546367681005 5.2078014369148 373.02820176855
2722	38069866 19794 149119 151202 2081 2748 668 0 27.778107485175 3407.4762678786 60064.030972783
2721	38089660 22025 149118 151202 2080 2748 669 1219.1748478543 2120.7728789831 1116325.8233705 1894724033.3223
2720	38111685 22048 149118 151202 2080 2748 669 204.49765683326 2450.5646134375 1406482.8568956 3214503020.9614
2731	38133733 18381 149123 151206 2084 2752 669 0.973 19.118036241847 1216.0694414347 5185.7994985673
2730	38152114 20470 149123 151206 2084 2752 669 -2.5 2.8828436680976 5.1595190083862 423.7849885644
2729	38172584 19889 149121 151206 2083 2752 670 0 27.763646015588 3405.627910757 58760.877865461
2728	38192473 22111 149120 151206 2082 2752 671 1216.428723637 2120.7622417118 1111620.2183828 1868895362.0237
2727	38214584 22071 149120 151206 2082 2752 671 205.08912616246 2450.434392506 1410499.9547383 3225646347.212
