file 38424082 1482401390                                        
version 2
run debug-0-20161222-11:07:01-2362
attr configname debug
attr datetime 20161222-11:07:01
attr experiment debug
attr inifile omnetpp.ini
attr iterationvars ""
attr iterationvars2 $repetition=0
attr measurement ""
attr network RSUExampleScenario
attr processid 2362
attr repetition 0
attr replication #0
attr resultdir results
attr runnumber 0
attr seedset 0
param **.coreDebug false
param **.debug false
param *.**.nic.mac1609_4.bitrate 27Mbps
param *.**.nic.mac1609_4.txPower 20mW
param *.**.nic.mac1609_4.useServiceChannel false
param *.**.nic.phy80211p.analogueModels "xmldoc(\"config.xml\")"
param *.**.nic.phy80211p.decider "xmldoc(\"config.xml\")"
param *.**.nic.phy80211p.sensitivity -89dBm
param *.**.nic.phy80211p.thermalNoise -110dBm
param *.**.nic.phy80211p.usePropagationDelay true
param *.**.nic.phy80211p.useThermalNoise true
param *.annotations.draw false
param *.connectionManager.alpha 2.0
param *.connectionManager.carrierFrequency "5.890e9 Hz"
param *.connectionManager.pMax 10mW
param *.connectionManager.sat -89dBm
param *.connectionManager.sendDirect true
param *.manager.autoShutdown true
param *.manager.host "\"localhost\""
param *.manager.launchConfig "xmldoc(\"erlangen.launchd.xml\")"
param *.manager.margin 25
param *.manager.moduleDisplayString "\"\""
param *.manager.moduleName "\"node\""
param *.manager.moduleType "\"org.car2x.veins.nodes.Car\""
param *.manager.port 9999
param *.manager.updateInterval 1s
param *.node[*].appl.beaconInterval 1s
param *.node[*].appl.beaconPriority 3
param *.node[*].appl.dataOnSch false
param *.node[*].appl.dataPriority 2
param *.node[*].appl.debug false
param *.node[*].appl.headerLength "256 bit"
param *.node[*].appl.maxOffset 0.005s
param *.node[*].appl.sendBeacons false
param *.node[*].appl.sendData true
param *.node[*].applType "\"TraCIDemo11p\""
param *.node[*].mobilityType "\"TraCIMobility\""
param *.node[*].mobilityType.debug true
param *.node[*].veinsmobility.accidentCount 5
param *.node[*].veinsmobility.accidentDuration 43s
param *.node[*].veinsmobility.accidentStart 85s
param *.node[*].veinsmobility.x 0
param *.node[*].veinsmobility.y 0
param *.node[*].veinsmobility.z 1.895
param *.node[*].veinsmobilityType "\"org.car2x.veins.modules.mobility.traci.TraCIMobility\""
param *.node[*].veinsmobilityType.debug true
param *.obstacles.debug false
param *.obstacles.obstacles "xmldoc(\"config.xml\", \"//AnalogueModel[@type='SimpleObstacleShadowing']/obstacles\")"
param *.playgroundSizeX 2500m
param *.playgroundSizeY 2500m
param *.playgroundSizeZ 50m
param *.rsu[*].appl.beaconInterval 1s
param *.rsu[*].appl.beaconPriority 3
param *.rsu[*].appl.dataOnSch false
param *.rsu[*].appl.dataPriority 2
param *.rsu[*].appl.debug false
param *.rsu[*].appl.headerLength "256 bit"
param *.rsu[*].appl.maxOffset 0.005s
param *.rsu[*].appl.sendBeacons false
param *.rsu[*].appl.sendData true
param *.rsu[*].applType "\"TraCIDemoRSU11p\""
param *.rsu[0].mobility.x 2000
param *.rsu[0].mobility.y 2000
param *.rsu[0].mobility.z 3
param *.world.use2D false
param *.world.useTorus false

vector 4  RSUExampleScenario.node[0].veinsmobility  posx  ETV
vector 5  RSUExampleScenario.node[0].veinsmobility  posy  ETV
vector 6  RSUExampleScenario.node[0].veinsmobility  speed  ETV
vector 11  RSUExampleScenario.node[1].veinsmobility  posx  ETV
vector 12  RSUExampleScenario.node[1].veinsmobility  posy  ETV
vector 7  RSUExampleScenario.node[0].veinsmobility  acceleration  ETV
vector 8  RSUExampleScenario.node[0].veinsmobility  co2emission  ETV
vector 13  RSUExampleScenario.node[1].veinsmobility  speed  ETV
vector 18  RSUExampleScenario.node[2].veinsmobility  posx  ETV
vector 19  RSUExampleScenario.node[2].veinsmobility  posy  ETV
vector 14  RSUExampleScenario.node[1].veinsmobility  acceleration  ETV
vector 15  RSUExampleScenario.node[1].veinsmobility  co2emission  ETV
vector 20  RSUExampleScenario.node[2].veinsmobility  speed  ETV
vector 25  RSUExampleScenario.node[3].veinsmobility  posx  ETV
vector 26  RSUExampleScenario.node[3].veinsmobility  posy  ETV
vector 21  RSUExampleScenario.node[2].veinsmobility  acceleration  ETV
vector 22  RSUExampleScenario.node[2].veinsmobility  co2emission  ETV
vector 32  RSUExampleScenario.node[4].veinsmobility  posx  ETV
vector 33  RSUExampleScenario.node[4].veinsmobility  posy  ETV
vector 27  RSUExampleScenario.node[3].veinsmobility  speed  ETV
vector 28  RSUExampleScenario.node[3].veinsmobility  acceleration  ETV
vector 29  RSUExampleScenario.node[3].veinsmobility  co2emission  ETV
vector 34  RSUExampleScenario.node[4].veinsmobility  speed  ETV
vector 39  RSUExampleScenario.node[5].veinsmobility  posx  ETV
vector 40  RSUExampleScenario.node[5].veinsmobility  posy  ETV
vector 35  RSUExampleScenario.node[4].veinsmobility  acceleration  ETV
vector 36  RSUExampleScenario.node[4].veinsmobility  co2emission  ETV
vector 41  RSUExampleScenario.node[5].veinsmobility  speed  ETV
vector 46  RSUExampleScenario.node[6].veinsmobility  posx  ETV
vector 47  RSUExampleScenario.node[6].veinsmobility  posy  ETV
vector 42  RSUExampleScenario.node[5].veinsmobility  acceleration  ETV
vector 43  RSUExampleScenario.node[5].veinsmobility  co2emission  ETV
vector 48  RSUExampleScenario.node[6].veinsmobility  speed  ETV
vector 53  RSUExampleScenario.node[7].veinsmobility  posx  ETV
vector 54  RSUExampleScenario.node[7].veinsmobility  posy  ETV
vector 49  RSUExampleScenario.node[6].veinsmobility  acceleration  ETV
vector 50  RSUExampleScenario.node[6].veinsmobility  co2emission  ETV
vector 55  RSUExampleScenario.node[7].veinsmobility  speed  ETV
vector 60  RSUExampleScenario.node[8].veinsmobility  posx  ETV
vector 61  RSUExampleScenario.node[8].veinsmobility  posy  ETV
vector 56  RSUExampleScenario.node[7].veinsmobility  acceleration  ETV
vector 57  RSUExampleScenario.node[7].veinsmobility  co2emission  ETV
vector 67  RSUExampleScenario.node[9].veinsmobility  posx  ETV
vector 68  RSUExampleScenario.node[9].veinsmobility  posy  ETV
vector 62  RSUExampleScenario.node[8].veinsmobility  speed  ETV
vector 63  RSUExampleScenario.node[8].veinsmobility  acceleration  ETV
vector 64  RSUExampleScenario.node[8].veinsmobility  co2emission  ETV
vector 69  RSUExampleScenario.node[9].veinsmobility  speed  ETV
vector 74  RSUExampleScenario.node[10].veinsmobility  posx  ETV
vector 75  RSUExampleScenario.node[10].veinsmobility  posy  ETV
vector 70  RSUExampleScenario.node[9].veinsmobility  acceleration  ETV
vector 71  RSUExampleScenario.node[9].veinsmobility  co2emission  ETV
vector 81  RSUExampleScenario.node[11].veinsmobility  posx  ETV
vector 82  RSUExampleScenario.node[11].veinsmobility  posy  ETV
vector 76  RSUExampleScenario.node[10].veinsmobility  speed  ETV
vector 77  RSUExampleScenario.node[10].veinsmobility  acceleration  ETV
vector 78  RSUExampleScenario.node[10].veinsmobility  co2emission  ETV
vector 83  RSUExampleScenario.node[11].veinsmobility  speed  ETV
vector 84  RSUExampleScenario.node[11].veinsmobility  acceleration  ETV
vector 85  RSUExampleScenario.node[11].veinsmobility  co2emission  ETV
vector 88  RSUExampleScenario.node[12].veinsmobility  posx  ETV
vector 89  RSUExampleScenario.node[12].veinsmobility  posy  ETV
vector 90  RSUExampleScenario.node[12].veinsmobility  speed  ETV
vector 95  RSUExampleScenario.node[13].veinsmobility  posx  ETV
vector 96  RSUExampleScenario.node[13].veinsmobility  posy  ETV
vector 91  RSUExampleScenario.node[12].veinsmobility  acceleration  ETV
vector 92  RSUExampleScenario.node[12].veinsmobility  co2emission  ETV
vector 97  RSUExampleScenario.node[13].veinsmobility  speed  ETV
vector 102  RSUExampleScenario.node[14].veinsmobility  posx  ETV
vector 103  RSUExampleScenario.node[14].veinsmobility  posy  ETV
vector 98  RSUExampleScenario.node[13].veinsmobility  acceleration  ETV
vector 99  RSUExampleScenario.node[13].veinsmobility  co2emission  ETV
vector 109  RSUExampleScenario.node[15].veinsmobility  posx  ETV
vector 110  RSUExampleScenario.node[15].veinsmobility  posy  ETV
vector 104  RSUExampleScenario.node[14].veinsmobility  speed  ETV
vector 105  RSUExampleScenario.node[14].veinsmobility  acceleration  ETV
vector 106  RSUExampleScenario.node[14].veinsmobility  co2emission  ETV
vector 111  RSUExampleScenario.node[15].veinsmobility  speed  ETV
vector 116  RSUExampleScenario.node[16].veinsmobility  posx  ETV
vector 117  RSUExampleScenario.node[16].veinsmobility  posy  ETV
vector 112  RSUExampleScenario.node[15].veinsmobility  acceleration  ETV
vector 113  RSUExampleScenario.node[15].veinsmobility  co2emission  ETV
vector 123  RSUExampleScenario.node[17].veinsmobility  posx  ETV
vector 124  RSUExampleScenario.node[17].veinsmobility  posy  ETV
vector 118  RSUExampleScenario.node[16].veinsmobility  speed  ETV
vector 119  RSUExampleScenario.node[16].veinsmobility  acceleration  ETV
vector 120  RSUExampleScenario.node[16].veinsmobility  co2emission  ETV
vector 125  RSUExampleScenario.node[17].veinsmobility  speed  ETV
vector 130  RSUExampleScenario.node[18].veinsmobility  posx  ETV
vector 131  RSUExampleScenario.node[18].veinsmobility  posy  ETV
vector 126  RSUExampleScenario.node[17].veinsmobility  acceleration  ETV
vector 127  RSUExampleScenario.node[17].veinsmobility  co2emission  ETV
vector 137  RSUExampleScenario.node[19].veinsmobility  posx  ETV
vector 138  RSUExampleScenario.node[19].veinsmobility  posy  ETV
vector 132  RSUExampleScenario.node[18].veinsmobility  speed  ETV
vector 133  RSUExampleScenario.node[18].veinsmobility  acceleration  ETV
vector 134  RSUExampleScenario.node[18].veinsmobility  co2emission  ETV
vector 139  RSUExampleScenario.node[19].veinsmobility  speed  ETV
vector 144  RSUExampleScenario.node[20].veinsmobility  posx  ETV
vector 145  RSUExampleScenario.node[20].veinsmobility  posy  ETV
vector 140  RSUExampleScenario.node[19].veinsmobility  acceleration  ETV
vector 141  RSUExampleScenario.node[19].veinsmobility  co2emission  ETV
vector 151  RSUExampleScenario.node[21].veinsmobility  posx  ETV
vector 152  RSUExampleScenario.node[21].veinsmobility  posy  ETV
vector 146  RSUExampleScenario.node[20].veinsmobility  speed  ETV
vector 147  RSUExampleScenario.node[20].veinsmobility  acceleration  ETV
vector 148  RSUExampleScenario.node[20].veinsmobility  co2emission  ETV
vector 153  RSUExampleScenario.node[21].veinsmobility  speed  ETV
vector 158  RSUExampleScenario.node[22].veinsmobility  posx  ETV
vector 159  RSUExampleScenario.node[22].veinsmobility  posy  ETV
vector 154  RSUExampleScenario.node[21].veinsmobility  acceleration  ETV
vector 155  RSUExampleScenario.node[21].veinsmobility  co2emission  ETV
vector 160  RSUExampleScenario.node[22].veinsmobility  speed  ETV
vector 161  RSUExampleScenario.node[22].veinsmobility  acceleration  ETV
vector 162  RSUExampleScenario.node[22].veinsmobility  co2emission  ETV
vector 165  RSUExampleScenario.node[23].veinsmobility  posx  ETV
vector 166  RSUExampleScenario.node[23].veinsmobility  posy  ETV
vector 167  RSUExampleScenario.node[23].veinsmobility  speed  ETV
vector 172  RSUExampleScenario.node[24].veinsmobility  posx  ETV
vector 173  RSUExampleScenario.node[24].veinsmobility  posy  ETV
vector 168  RSUExampleScenario.node[23].veinsmobility  acceleration  ETV
vector 169  RSUExampleScenario.node[23].veinsmobility  co2emission  ETV
vector 174  RSUExampleScenario.node[24].veinsmobility  speed  ETV
vector 179  RSUExampleScenario.node[25].veinsmobility  posx  ETV
vector 180  RSUExampleScenario.node[25].veinsmobility  posy  ETV
vector 175  RSUExampleScenario.node[24].veinsmobility  acceleration  ETV
vector 176  RSUExampleScenario.node[24].veinsmobility  co2emission  ETV
vector 181  RSUExampleScenario.node[25].veinsmobility  speed  ETV
vector 186  RSUExampleScenario.node[26].veinsmobility  posx  ETV
vector 187  RSUExampleScenario.node[26].veinsmobility  posy  ETV
vector 182  RSUExampleScenario.node[25].veinsmobility  acceleration  ETV
vector 183  RSUExampleScenario.node[25].veinsmobility  co2emission  ETV
vector 193  RSUExampleScenario.node[27].veinsmobility  posx  ETV
vector 194  RSUExampleScenario.node[27].veinsmobility  posy  ETV
vector 188  RSUExampleScenario.node[26].veinsmobility  speed  ETV
vector 189  RSUExampleScenario.node[26].veinsmobility  acceleration  ETV
vector 190  RSUExampleScenario.node[26].veinsmobility  co2emission  ETV
vector 195  RSUExampleScenario.node[27].veinsmobility  speed  ETV
vector 200  RSUExampleScenario.node[28].veinsmobility  posx  ETV
vector 201  RSUExampleScenario.node[28].veinsmobility  posy  ETV
vector 196  RSUExampleScenario.node[27].veinsmobility  acceleration  ETV
vector 197  RSUExampleScenario.node[27].veinsmobility  co2emission  ETV
vector 202  RSUExampleScenario.node[28].veinsmobility  speed  ETV
vector 207  RSUExampleScenario.node[29].veinsmobility  posx  ETV
vector 208  RSUExampleScenario.node[29].veinsmobility  posy  ETV
vector 203  RSUExampleScenario.node[28].veinsmobility  acceleration  ETV
vector 204  RSUExampleScenario.node[28].veinsmobility  co2emission  ETV
vector 209  RSUExampleScenario.node[29].veinsmobility  speed  ETV
vector 214  RSUExampleScenario.node[30].veinsmobility  posx  ETV
vector 215  RSUExampleScenario.node[30].veinsmobility  posy  ETV
vector 210  RSUExampleScenario.node[29].veinsmobility  acceleration  ETV
vector 211  RSUExampleScenario.node[29].veinsmobility  co2emission  ETV
vector 221  RSUExampleScenario.node[31].veinsmobility  posx  ETV
vector 222  RSUExampleScenario.node[31].veinsmobility  posy  ETV
vector 216  RSUExampleScenario.node[30].veinsmobility  speed  ETV
vector 217  RSUExampleScenario.node[30].veinsmobility  acceleration  ETV
vector 218  RSUExampleScenario.node[30].veinsmobility  co2emission  ETV
vector 223  RSUExampleScenario.node[31].veinsmobility  speed  ETV
vector 228  RSUExampleScenario.node[32].veinsmobility  posx  ETV
vector 229  RSUExampleScenario.node[32].veinsmobility  posy  ETV
vector 224  RSUExampleScenario.node[31].veinsmobility  acceleration  ETV
vector 225  RSUExampleScenario.node[31].veinsmobility  co2emission  ETV
vector 230  RSUExampleScenario.node[32].veinsmobility  speed  ETV
vector 235  RSUExampleScenario.node[33].veinsmobility  posx  ETV
vector 236  RSUExampleScenario.node[33].veinsmobility  posy  ETV
vector 231  RSUExampleScenario.node[32].veinsmobility  acceleration  ETV
vector 232  RSUExampleScenario.node[32].veinsmobility  co2emission  ETV
vector 237  RSUExampleScenario.node[33].veinsmobility  speed  ETV
vector 242  RSUExampleScenario.node[34].veinsmobility  posx  ETV
vector 243  RSUExampleScenario.node[34].veinsmobility  posy  ETV
vector 238  RSUExampleScenario.node[33].veinsmobility  acceleration  ETV
vector 239  RSUExampleScenario.node[33].veinsmobility  co2emission  ETV
vector 244  RSUExampleScenario.node[34].veinsmobility  speed  ETV
vector 249  RSUExampleScenario.node[35].veinsmobility  posx  ETV
vector 250  RSUExampleScenario.node[35].veinsmobility  posy  ETV
vector 245  RSUExampleScenario.node[34].veinsmobility  acceleration  ETV
vector 246  RSUExampleScenario.node[34].veinsmobility  co2emission  ETV
vector 251  RSUExampleScenario.node[35].veinsmobility  speed  ETV
vector 256  RSUExampleScenario.node[36].veinsmobility  posx  ETV
vector 257  RSUExampleScenario.node[36].veinsmobility  posy  ETV
vector 252  RSUExampleScenario.node[35].veinsmobility  acceleration  ETV
vector 253  RSUExampleScenario.node[35].veinsmobility  co2emission  ETV
vector 258  RSUExampleScenario.node[36].veinsmobility  speed  ETV
vector 263  RSUExampleScenario.node[37].veinsmobility  posx  ETV
vector 264  RSUExampleScenario.node[37].veinsmobility  posy  ETV
vector 259  RSUExampleScenario.node[36].veinsmobility  acceleration  ETV
vector 260  RSUExampleScenario.node[36].veinsmobility  co2emission  ETV
vector 265  RSUExampleScenario.node[37].veinsmobility  speed  ETV
vector 270  RSUExampleScenario.node[38].veinsmobility  posx  ETV
vector 271  RSUExampleScenario.node[38].veinsmobility  posy  ETV
vector 266  RSUExampleScenario.node[37].veinsmobility  acceleration  ETV
vector 267  RSUExampleScenario.node[37].veinsmobility  co2emission  ETV
vector 272  RSUExampleScenario.node[38].veinsmobility  speed  ETV
vector 277  RSUExampleScenario.node[39].veinsmobility  posx  ETV
vector 278  RSUExampleScenario.node[39].veinsmobility  posy  ETV
vector 273  RSUExampleScenario.node[38].veinsmobility  acceleration  ETV
vector 274  RSUExampleScenario.node[38].veinsmobility  co2emission  ETV
vector 279  RSUExampleScenario.node[39].veinsmobility  speed  ETV
vector 284  RSUExampleScenario.node[40].veinsmobility  posx  ETV
vector 285  RSUExampleScenario.node[40].veinsmobility  posy  ETV
vector 280  RSUExampleScenario.node[39].veinsmobility  acceleration  ETV
vector 281  RSUExampleScenario.node[39].veinsmobility  co2emission  ETV
vector 286  RSUExampleScenario.node[40].veinsmobility  speed  ETV
vector 291  RSUExampleScenario.node[41].veinsmobility  posx  ETV
vector 292  RSUExampleScenario.node[41].veinsmobility  posy  ETV
vector 287  RSUExampleScenario.node[40].veinsmobility  acceleration  ETV
vector 288  RSUExampleScenario.node[40].veinsmobility  co2emission  ETV
vector 293  RSUExampleScenario.node[41].veinsmobility  speed  ETV
vector 298  RSUExampleScenario.node[42].veinsmobility  posx  ETV
vector 299  RSUExampleScenario.node[42].veinsmobility  posy  ETV
vector 294  RSUExampleScenario.node[41].veinsmobility  acceleration  ETV
vector 295  RSUExampleScenario.node[41].veinsmobility  co2emission  ETV
vector 300  RSUExampleScenario.node[42].veinsmobility  speed  ETV
vector 305  RSUExampleScenario.node[43].veinsmobility  posx  ETV
vector 306  RSUExampleScenario.node[43].veinsmobility  posy  ETV
vector 301  RSUExampleScenario.node[42].veinsmobility  acceleration  ETV
vector 302  RSUExampleScenario.node[42].veinsmobility  co2emission  ETV
vector 307  RSUExampleScenario.node[43].veinsmobility  speed  ETV
vector 308  RSUExampleScenario.node[43].veinsmobility  acceleration  ETV
vector 309  RSUExampleScenario.node[43].veinsmobility  co2emission  ETV
vector 312  RSUExampleScenario.node[44].veinsmobility  posx  ETV
vector 313  RSUExampleScenario.node[44].veinsmobility  posy  ETV
vector 314  RSUExampleScenario.node[44].veinsmobility  speed  ETV
vector 315  RSUExampleScenario.node[44].veinsmobility  acceleration  ETV
vector 316  RSUExampleScenario.node[44].veinsmobility  co2emission  ETV
vector 319  RSUExampleScenario.node[45].veinsmobility  posx  ETV
vector 320  RSUExampleScenario.node[45].veinsmobility  posy  ETV
vector 321  RSUExampleScenario.node[45].veinsmobility  speed  ETV
vector 326  RSUExampleScenario.node[46].veinsmobility  posx  ETV
vector 327  RSUExampleScenario.node[46].veinsmobility  posy  ETV
vector 322  RSUExampleScenario.node[45].veinsmobility  acceleration  ETV
vector 323  RSUExampleScenario.node[45].veinsmobility  co2emission  ETV
vector 328  RSUExampleScenario.node[46].veinsmobility  speed  ETV
vector 329  RSUExampleScenario.node[46].veinsmobility  acceleration  ETV
vector 330  RSUExampleScenario.node[46].veinsmobility  co2emission  ETV
vector 333  RSUExampleScenario.node[47].veinsmobility  posx  ETV
vector 334  RSUExampleScenario.node[47].veinsmobility  posy  ETV
vector 335  RSUExampleScenario.node[47].veinsmobility  speed  ETV
vector 340  RSUExampleScenario.node[48].veinsmobility  posx  ETV
vector 341  RSUExampleScenario.node[48].veinsmobility  posy  ETV
vector 336  RSUExampleScenario.node[47].veinsmobility  acceleration  ETV
vector 337  RSUExampleScenario.node[47].veinsmobility  co2emission  ETV
vector 342  RSUExampleScenario.node[48].veinsmobility  speed  ETV
vector 347  RSUExampleScenario.node[49].veinsmobility  posx  ETV
vector 348  RSUExampleScenario.node[49].veinsmobility  posy  ETV
vector 343  RSUExampleScenario.node[48].veinsmobility  acceleration  ETV
vector 344  RSUExampleScenario.node[48].veinsmobility  co2emission  ETV
vector 349  RSUExampleScenario.node[49].veinsmobility  speed  ETV
vector 354  RSUExampleScenario.node[50].veinsmobility  posx  ETV
vector 355  RSUExampleScenario.node[50].veinsmobility  posy  ETV
vector 350  RSUExampleScenario.node[49].veinsmobility  acceleration  ETV
vector 351  RSUExampleScenario.node[49].veinsmobility  co2emission  ETV
vector 356  RSUExampleScenario.node[50].veinsmobility  speed  ETV
vector 361  RSUExampleScenario.node[51].veinsmobility  posx  ETV
vector 362  RSUExampleScenario.node[51].veinsmobility  posy  ETV
vector 357  RSUExampleScenario.node[50].veinsmobility  acceleration  ETV
vector 358  RSUExampleScenario.node[50].veinsmobility  co2emission  ETV
vector 363  RSUExampleScenario.node[51].veinsmobility  speed  ETV
vector 368  RSUExampleScenario.node[52].veinsmobility  posx  ETV
vector 369  RSUExampleScenario.node[52].veinsmobility  posy  ETV
vector 364  RSUExampleScenario.node[51].veinsmobility  acceleration  ETV
vector 365  RSUExampleScenario.node[51].veinsmobility  co2emission  ETV
vector 370  RSUExampleScenario.node[52].veinsmobility  speed  ETV
vector 371  RSUExampleScenario.node[52].veinsmobility  acceleration  ETV
vector 372  RSUExampleScenario.node[52].veinsmobility  co2emission  ETV
vector 375  RSUExampleScenario.node[53].veinsmobility  posx  ETV
vector 376  RSUExampleScenario.node[53].veinsmobility  posy  ETV
vector 377  RSUExampleScenario.node[53].veinsmobility  speed  ETV
vector 382  RSUExampleScenario.node[54].veinsmobility  posx  ETV
vector 383  RSUExampleScenario.node[54].veinsmobility  posy  ETV
vector 378  RSUExampleScenario.node[53].veinsmobility  acceleration  ETV
vector 379  RSUExampleScenario.node[53].veinsmobility  co2emission  ETV
vector 384  RSUExampleScenario.node[54].veinsmobility  speed  ETV
vector 389  RSUExampleScenario.node[55].veinsmobility  posx  ETV
vector 390  RSUExampleScenario.node[55].veinsmobility  posy  ETV
vector 385  RSUExampleScenario.node[54].veinsmobility  acceleration  ETV
vector 386  RSUExampleScenario.node[54].veinsmobility  co2emission  ETV
vector 391  RSUExampleScenario.node[55].veinsmobility  speed  ETV
vector 396  RSUExampleScenario.node[56].veinsmobility  posx  ETV
vector 397  RSUExampleScenario.node[56].veinsmobility  posy  ETV
vector 392  RSUExampleScenario.node[55].veinsmobility  acceleration  ETV
vector 393  RSUExampleScenario.node[55].veinsmobility  co2emission  ETV
vector 398  RSUExampleScenario.node[56].veinsmobility  speed  ETV
vector 403  RSUExampleScenario.node[57].veinsmobility  posx  ETV
vector 404  RSUExampleScenario.node[57].veinsmobility  posy  ETV
vector 399  RSUExampleScenario.node[56].veinsmobility  acceleration  ETV
vector 400  RSUExampleScenario.node[56].veinsmobility  co2emission  ETV
vector 405  RSUExampleScenario.node[57].veinsmobility  speed  ETV
vector 406  RSUExampleScenario.node[57].veinsmobility  acceleration  ETV
vector 407  RSUExampleScenario.node[57].veinsmobility  co2emission  ETV
vector 410  RSUExampleScenario.node[58].veinsmobility  posx  ETV
vector 411  RSUExampleScenario.node[58].veinsmobility  posy  ETV
vector 412  RSUExampleScenario.node[58].veinsmobility  speed  ETV
vector 417  RSUExampleScenario.node[59].veinsmobility  posx  ETV
vector 418  RSUExampleScenario.node[59].veinsmobility  posy  ETV
vector 413  RSUExampleScenario.node[58].veinsmobility  acceleration  ETV
vector 414  RSUExampleScenario.node[58].veinsmobility  co2emission  ETV
vector 419  RSUExampleScenario.node[59].veinsmobility  speed  ETV
vector 424  RSUExampleScenario.node[60].veinsmobility  posx  ETV
vector 425  RSUExampleScenario.node[60].veinsmobility  posy  ETV
vector 420  RSUExampleScenario.node[59].veinsmobility  acceleration  ETV
vector 421  RSUExampleScenario.node[59].veinsmobility  co2emission  ETV
vector 426  RSUExampleScenario.node[60].veinsmobility  speed  ETV
vector 427  RSUExampleScenario.node[60].veinsmobility  acceleration  ETV
vector 428  RSUExampleScenario.node[60].veinsmobility  co2emission  ETV
vector 431  RSUExampleScenario.node[61].veinsmobility  posx  ETV
vector 432  RSUExampleScenario.node[61].veinsmobility  posy  ETV
vector 433  RSUExampleScenario.node[61].veinsmobility  speed  ETV
vector 438  RSUExampleScenario.node[62].veinsmobility  posx  ETV
vector 439  RSUExampleScenario.node[62].veinsmobility  posy  ETV
vector 434  RSUExampleScenario.node[61].veinsmobility  acceleration  ETV
vector 435  RSUExampleScenario.node[61].veinsmobility  co2emission  ETV
vector 440  RSUExampleScenario.node[62].veinsmobility  speed  ETV
vector 445  RSUExampleScenario.node[63].veinsmobility  posx  ETV
vector 446  RSUExampleScenario.node[63].veinsmobility  posy  ETV
vector 441  RSUExampleScenario.node[62].veinsmobility  acceleration  ETV
vector 442  RSUExampleScenario.node[62].veinsmobility  co2emission  ETV
vector 447  RSUExampleScenario.node[63].veinsmobility  speed  ETV
vector 448  RSUExampleScenario.node[63].veinsmobility  acceleration  ETV
vector 449  RSUExampleScenario.node[63].veinsmobility  co2emission  ETV
vector 452  RSUExampleScenario.node[64].veinsmobility  posx  ETV
vector 453  RSUExampleScenario.node[64].veinsmobility  posy  ETV
vector 454  RSUExampleScenario.node[64].veinsmobility  speed  ETV
vector 459  RSUExampleScenario.node[65].veinsmobility  posx  ETV
vector 460  RSUExampleScenario.node[65].veinsmobility  posy  ETV
vector 455  RSUExampleScenario.node[64].veinsmobility  acceleration  ETV
vector 456  RSUExampleScenario.node[64].veinsmobility  co2emission  ETV
vector 461  RSUExampleScenario.node[65].veinsmobility  speed  ETV
vector 466  RSUExampleScenario.node[66].veinsmobility  posx  ETV
vector 467  RSUExampleScenario.node[66].veinsmobility  posy  ETV
vector 462  RSUExampleScenario.node[65].veinsmobility  acceleration  ETV
vector 463  RSUExampleScenario.node[65].veinsmobility  co2emission  ETV
vector 468  RSUExampleScenario.node[66].veinsmobility  speed  ETV
vector 469  RSUExampleScenario.node[66].veinsmobility  acceleration  ETV
vector 470  RSUExampleScenario.node[66].veinsmobility  co2emission  ETV
vector 473  RSUExampleScenario.node[67].veinsmobility  posx  ETV
vector 474  RSUExampleScenario.node[67].veinsmobility  posy  ETV
vector 475  RSUExampleScenario.node[67].veinsmobility  speed  ETV
vector 480  RSUExampleScenario.node[68].veinsmobility  posx  ETV
vector 481  RSUExampleScenario.node[68].veinsmobility  posy  ETV
vector 476  RSUExampleScenario.node[67].veinsmobility  acceleration  ETV
vector 477  RSUExampleScenario.node[67].veinsmobility  co2emission  ETV
vector 482  RSUExampleScenario.node[68].veinsmobility  speed  ETV
vector 487  RSUExampleScenario.node[69].veinsmobility  posx  ETV
vector 488  RSUExampleScenario.node[69].veinsmobility  posy  ETV
vector 483  RSUExampleScenario.node[68].veinsmobility  acceleration  ETV
vector 484  RSUExampleScenario.node[68].veinsmobility  co2emission  ETV
vector 489  RSUExampleScenario.node[69].veinsmobility  speed  ETV
vector 494  RSUExampleScenario.node[70].veinsmobility  posx  ETV
vector 495  RSUExampleScenario.node[70].veinsmobility  posy  ETV
vector 490  RSUExampleScenario.node[69].veinsmobility  acceleration  ETV
vector 491  RSUExampleScenario.node[69].veinsmobility  co2emission  ETV
vector 496  RSUExampleScenario.node[70].veinsmobility  speed  ETV
vector 497  RSUExampleScenario.node[70].veinsmobility  acceleration  ETV
vector 498  RSUExampleScenario.node[70].veinsmobility  co2emission  ETV
vector 501  RSUExampleScenario.node[71].veinsmobility  posx  ETV
vector 502  RSUExampleScenario.node[71].veinsmobility  posy  ETV
vector 503  RSUExampleScenario.node[71].veinsmobility  speed  ETV
vector 508  RSUExampleScenario.node[72].veinsmobility  posx  ETV
vector 509  RSUExampleScenario.node[72].veinsmobility  posy  ETV
vector 504  RSUExampleScenario.node[71].veinsmobility  acceleration  ETV
vector 505  RSUExampleScenario.node[71].veinsmobility  co2emission  ETV
vector 510  RSUExampleScenario.node[72].veinsmobility  speed  ETV
vector 515  RSUExampleScenario.node[73].veinsmobility  posx  ETV
vector 516  RSUExampleScenario.node[73].veinsmobility  posy  ETV
vector 511  RSUExampleScenario.node[72].veinsmobility  acceleration  ETV
vector 512  RSUExampleScenario.node[72].veinsmobility  co2emission  ETV
vector 517  RSUExampleScenario.node[73].veinsmobility  speed  ETV
vector 522  RSUExampleScenario.node[74].veinsmobility  posx  ETV
vector 523  RSUExampleScenario.node[74].veinsmobility  posy  ETV
vector 518  RSUExampleScenario.node[73].veinsmobility  acceleration  ETV
vector 519  RSUExampleScenario.node[73].veinsmobility  co2emission  ETV
vector 524  RSUExampleScenario.node[74].veinsmobility  speed  ETV
vector 525  RSUExampleScenario.node[74].veinsmobility  acceleration  ETV
vector 526  RSUExampleScenario.node[74].veinsmobility  co2emission  ETV
vector 529  RSUExampleScenario.node[75].veinsmobility  posx  ETV
vector 530  RSUExampleScenario.node[75].veinsmobility  posy  ETV
vector 531  RSUExampleScenario.node[75].veinsmobility  speed  ETV
vector 536  RSUExampleScenario.node[76].veinsmobility  posx  ETV
vector 537  RSUExampleScenario.node[76].veinsmobility  posy  ETV
vector 532  RSUExampleScenario.node[75].veinsmobility  acceleration  ETV
vector 533  RSUExampleScenario.node[75].veinsmobility  co2emission  ETV
vector 538  RSUExampleScenario.node[76].veinsmobility  speed  ETV
vector 543  RSUExampleScenario.node[77].veinsmobility  posx  ETV
vector 544  RSUExampleScenario.node[77].veinsmobility  posy  ETV
vector 539  RSUExampleScenario.node[76].veinsmobility  acceleration  ETV
vector 540  RSUExampleScenario.node[76].veinsmobility  co2emission  ETV
vector 545  RSUExampleScenario.node[77].veinsmobility  speed  ETV
vector 550  RSUExampleScenario.node[78].veinsmobility  posx  ETV
vector 551  RSUExampleScenario.node[78].veinsmobility  posy  ETV
vector 546  RSUExampleScenario.node[77].veinsmobility  acceleration  ETV
vector 547  RSUExampleScenario.node[77].veinsmobility  co2emission  ETV
vector 552  RSUExampleScenario.node[78].veinsmobility  speed  ETV
vector 553  RSUExampleScenario.node[78].veinsmobility  acceleration  ETV
vector 554  RSUExampleScenario.node[78].veinsmobility  co2emission  ETV
vector 557  RSUExampleScenario.node[79].veinsmobility  posx  ETV
vector 558  RSUExampleScenario.node[79].veinsmobility  posy  ETV
vector 559  RSUExampleScenario.node[79].veinsmobility  speed  ETV
vector 564  RSUExampleScenario.node[80].veinsmobility  posx  ETV
vector 565  RSUExampleScenario.node[80].veinsmobility  posy  ETV
vector 560  RSUExampleScenario.node[79].veinsmobility  acceleration  ETV
vector 561  RSUExampleScenario.node[79].veinsmobility  co2emission  ETV
vector 566  RSUExampleScenario.node[80].veinsmobility  speed  ETV
vector 567  RSUExampleScenario.node[80].veinsmobility  acceleration  ETV
vector 568  RSUExampleScenario.node[80].veinsmobility  co2emission  ETV
vector 571  RSUExampleScenario.node[81].veinsmobility  posx  ETV
vector 572  RSUExampleScenario.node[81].veinsmobility  posy  ETV
vector 573  RSUExampleScenario.node[81].veinsmobility  speed  ETV
vector 578  RSUExampleScenario.node[82].veinsmobility  posx  ETV
vector 579  RSUExampleScenario.node[82].veinsmobility  posy  ETV
vector 574  RSUExampleScenario.node[81].veinsmobility  acceleration  ETV
vector 575  RSUExampleScenario.node[81].veinsmobility  co2emission  ETV
vector 580  RSUExampleScenario.node[82].veinsmobility  speed  ETV
vector 585  RSUExampleScenario.node[83].veinsmobility  posx  ETV
vector 586  RSUExampleScenario.node[83].veinsmobility  posy  ETV
vector 581  RSUExampleScenario.node[82].veinsmobility  acceleration  ETV
vector 582  RSUExampleScenario.node[82].veinsmobility  co2emission  ETV
vector 587  RSUExampleScenario.node[83].veinsmobility  speed  ETV
vector 588  RSUExampleScenario.node[83].veinsmobility  acceleration  ETV
vector 589  RSUExampleScenario.node[83].veinsmobility  co2emission  ETV
vector 592  RSUExampleScenario.node[84].veinsmobility  posx  ETV
vector 593  RSUExampleScenario.node[84].veinsmobility  posy  ETV
vector 594  RSUExampleScenario.node[84].veinsmobility  speed  ETV
vector 599  RSUExampleScenario.node[85].veinsmobility  posx  ETV
vector 600  RSUExampleScenario.node[85].veinsmobility  posy  ETV
vector 595  RSUExampleScenario.node[84].veinsmobility  acceleration  ETV
vector 596  RSUExampleScenario.node[84].veinsmobility  co2emission  ETV
vector 601  RSUExampleScenario.node[85].veinsmobility  speed  ETV
vector 602  RSUExampleScenario.node[85].veinsmobility  acceleration  ETV
vector 603  RSUExampleScenario.node[85].veinsmobility  co2emission  ETV
vector 606  RSUExampleScenario.node[86].veinsmobility  posx  ETV
vector 607  RSUExampleScenario.node[86].veinsmobility  posy  ETV
vector 608  RSUExampleScenario.node[86].veinsmobility  speed  ETV
vector 613  RSUExampleScenario.node[87].veinsmobility  posx  ETV
vector 614  RSUExampleScenario.node[87].veinsmobility  posy  ETV
vector 609  RSUExampleScenario.node[86].veinsmobility  acceleration  ETV
vector 610  RSUExampleScenario.node[86].veinsmobility  co2emission  ETV
vector 615  RSUExampleScenario.node[87].veinsmobility  speed  ETV
vector 616  RSUExampleScenario.node[87].veinsmobility  acceleration  ETV
vector 617  RSUExampleScenario.node[87].veinsmobility  co2emission  ETV
vector 620  RSUExampleScenario.node[88].veinsmobility  posx  ETV
vector 621  RSUExampleScenario.node[88].veinsmobility  posy  ETV
vector 622  RSUExampleScenario.node[88].veinsmobility  speed  ETV
vector 627  RSUExampleScenario.node[89].veinsmobility  posx  ETV
vector 628  RSUExampleScenario.node[89].veinsmobility  posy  ETV
vector 623  RSUExampleScenario.node[88].veinsmobility  acceleration  ETV
vector 624  RSUExampleScenario.node[88].veinsmobility  co2emission  ETV
vector 629  RSUExampleScenario.node[89].veinsmobility  speed  ETV
vector 630  RSUExampleScenario.node[89].veinsmobility  acceleration  ETV
vector 631  RSUExampleScenario.node[89].veinsmobility  co2emission  ETV
vector 634  RSUExampleScenario.node[90].veinsmobility  posx  ETV
vector 635  RSUExampleScenario.node[90].veinsmobility  posy  ETV
vector 636  RSUExampleScenario.node[90].veinsmobility  speed  ETV
vector 641  RSUExampleScenario.node[91].veinsmobility  posx  ETV
vector 642  RSUExampleScenario.node[91].veinsmobility  posy  ETV
vector 637  RSUExampleScenario.node[90].veinsmobility  acceleration  ETV
vector 638  RSUExampleScenario.node[90].veinsmobility  co2emission  ETV
vector 643  RSUExampleScenario.node[91].veinsmobility  speed  ETV
vector 648  RSUExampleScenario.node[92].veinsmobility  posx  ETV
vector 649  RSUExampleScenario.node[92].veinsmobility  posy  ETV
vector 644  RSUExampleScenario.node[91].veinsmobility  acceleration  ETV
vector 645  RSUExampleScenario.node[91].veinsmobility  co2emission  ETV
vector 650  RSUExampleScenario.node[92].veinsmobility  speed  ETV
vector 651  RSUExampleScenario.node[92].veinsmobility  acceleration  ETV
vector 652  RSUExampleScenario.node[92].veinsmobility  co2emission  ETV
vector 655  RSUExampleScenario.node[93].veinsmobility  posx  ETV
vector 656  RSUExampleScenario.node[93].veinsmobility  posy  ETV
vector 657  RSUExampleScenario.node[93].veinsmobility  speed  ETV
vector 658  RSUExampleScenario.node[93].veinsmobility  acceleration  ETV
vector 659  RSUExampleScenario.node[93].veinsmobility  co2emission  ETV
vector 662  RSUExampleScenario.node[94].veinsmobility  posx  ETV
vector 663  RSUExampleScenario.node[94].veinsmobility  posy  ETV
vector 664  RSUExampleScenario.node[94].veinsmobility  speed  ETV
vector 665  RSUExampleScenario.node[94].veinsmobility  acceleration  ETV
vector 666  RSUExampleScenario.node[94].veinsmobility  co2emission  ETV
vector 669  RSUExampleScenario.node[95].veinsmobility  posx  ETV
vector 670  RSUExampleScenario.node[95].veinsmobility  posy  ETV
vector 671  RSUExampleScenario.node[95].veinsmobility  speed  ETV
vector 672  RSUExampleScenario.node[95].veinsmobility  acceleration  ETV
vector 673  RSUExampleScenario.node[95].veinsmobility  co2emission  ETV
vector 676  RSUExampleScenario.node[96].veinsmobility  posx  ETV
vector 677  RSUExampleScenario.node[96].veinsmobility  posy  ETV
vector 678  RSUExampleScenario.node[96].veinsmobility  speed  ETV
vector 679  RSUExampleScenario.node[96].veinsmobility  acceleration  ETV
vector 680  RSUExampleScenario.node[96].veinsmobility  co2emission  ETV
vector 683  RSUExampleScenario.node[97].veinsmobility  posx  ETV
vector 684  RSUExampleScenario.node[97].veinsmobility  posy  ETV
vector 685  RSUExampleScenario.node[97].veinsmobility  speed  ETV
vector 686  RSUExampleScenario.node[97].veinsmobility  acceleration  ETV
vector 687  RSUExampleScenario.node[97].veinsmobility  co2emission  ETV
vector 690  RSUExampleScenario.node[98].veinsmobility  posx  ETV
vector 691  RSUExampleScenario.node[98].veinsmobility  posy  ETV
vector 692  RSUExampleScenario.node[98].veinsmobility  speed  ETV
vector 693  RSUExampleScenario.node[98].veinsmobility  acceleration  ETV
vector 694  RSUExampleScenario.node[98].veinsmobility  co2emission  ETV
vector 697  RSUExampleScenario.node[99].veinsmobility  posx  ETV
vector 698  RSUExampleScenario.node[99].veinsmobility  posy  ETV
vector 699  RSUExampleScenario.node[99].veinsmobility  speed  ETV
vector 700  RSUExampleScenario.node[99].veinsmobility  acceleration  ETV
vector 701  RSUExampleScenario.node[99].veinsmobility  co2emission  ETV
vector 704  RSUExampleScenario.node[100].veinsmobility  posx  ETV
vector 705  RSUExampleScenario.node[100].veinsmobility  posy  ETV
vector 706  RSUExampleScenario.node[100].veinsmobility  speed  ETV
vector 711  RSUExampleScenario.node[101].veinsmobility  posx  ETV
vector 712  RSUExampleScenario.node[101].veinsmobility  posy  ETV
vector 707  RSUExampleScenario.node[100].veinsmobility  acceleration  ETV
vector 708  RSUExampleScenario.node[100].veinsmobility  co2emission  ETV
vector 713  RSUExampleScenario.node[101].veinsmobility  speed  ETV
vector 718  RSUExampleScenario.node[102].veinsmobility  posx  ETV
vector 719  RSUExampleScenario.node[102].veinsmobility  posy  ETV
vector 714  RSUExampleScenario.node[101].veinsmobility  acceleration  ETV
vector 715  RSUExampleScenario.node[101].veinsmobility  co2emission  ETV
vector 720  RSUExampleScenario.node[102].veinsmobility  speed  ETV
vector 725  RSUExampleScenario.node[103].veinsmobility  posx  ETV
vector 726  RSUExampleScenario.node[103].veinsmobility  posy  ETV
vector 721  RSUExampleScenario.node[102].veinsmobility  acceleration  ETV
vector 722  RSUExampleScenario.node[102].veinsmobility  co2emission  ETV
vector 727  RSUExampleScenario.node[103].veinsmobility  speed  ETV
vector 732  RSUExampleScenario.node[104].veinsmobility  posx  ETV
vector 733  RSUExampleScenario.node[104].veinsmobility  posy  ETV
vector 728  RSUExampleScenario.node[103].veinsmobility  acceleration  ETV
vector 729  RSUExampleScenario.node[103].veinsmobility  co2emission  ETV
vector 734  RSUExampleScenario.node[104].veinsmobility  speed  ETV
vector 739  RSUExampleScenario.node[105].veinsmobility  posx  ETV
vector 740  RSUExampleScenario.node[105].veinsmobility  posy  ETV
vector 735  RSUExampleScenario.node[104].veinsmobility  acceleration  ETV
vector 736  RSUExampleScenario.node[104].veinsmobility  co2emission  ETV
vector 741  RSUExampleScenario.node[105].veinsmobility  speed  ETV
vector 746  RSUExampleScenario.node[106].veinsmobility  posx  ETV
vector 747  RSUExampleScenario.node[106].veinsmobility  posy  ETV
vector 742  RSUExampleScenario.node[105].veinsmobility  acceleration  ETV
vector 743  RSUExampleScenario.node[105].veinsmobility  co2emission  ETV
vector 748  RSUExampleScenario.node[106].veinsmobility  speed  ETV
vector 749  RSUExampleScenario.node[106].veinsmobility  acceleration  ETV
vector 750  RSUExampleScenario.node[106].veinsmobility  co2emission  ETV
vector 753  RSUExampleScenario.node[107].veinsmobility  posx  ETV
vector 754  RSUExampleScenario.node[107].veinsmobility  posy  ETV
vector 755  RSUExampleScenario.node[107].veinsmobility  speed  ETV
vector 760  RSUExampleScenario.node[108].veinsmobility  posx  ETV
vector 761  RSUExampleScenario.node[108].veinsmobility  posy  ETV
vector 756  RSUExampleScenario.node[107].veinsmobility  acceleration  ETV
vector 757  RSUExampleScenario.node[107].veinsmobility  co2emission  ETV
vector 762  RSUExampleScenario.node[108].veinsmobility  speed  ETV
vector 767  RSUExampleScenario.node[109].veinsmobility  posx  ETV
vector 768  RSUExampleScenario.node[109].veinsmobility  posy  ETV
vector 763  RSUExampleScenario.node[108].veinsmobility  acceleration  ETV
vector 764  RSUExampleScenario.node[108].veinsmobility  co2emission  ETV
vector 769  RSUExampleScenario.node[109].veinsmobility  speed  ETV
vector 774  RSUExampleScenario.node[110].veinsmobility  posx  ETV
vector 775  RSUExampleScenario.node[110].veinsmobility  posy  ETV
vector 770  RSUExampleScenario.node[109].veinsmobility  acceleration  ETV
vector 771  RSUExampleScenario.node[109].veinsmobility  co2emission  ETV
vector 776  RSUExampleScenario.node[110].veinsmobility  speed  ETV
vector 781  RSUExampleScenario.node[111].veinsmobility  posx  ETV
vector 782  RSUExampleScenario.node[111].veinsmobility  posy  ETV
vector 777  RSUExampleScenario.node[110].veinsmobility  acceleration  ETV
vector 778  RSUExampleScenario.node[110].veinsmobility  co2emission  ETV
vector 783  RSUExampleScenario.node[111].veinsmobility  speed  ETV
vector 784  RSUExampleScenario.node[111].veinsmobility  acceleration  ETV
vector 785  RSUExampleScenario.node[111].veinsmobility  co2emission  ETV
vector 788  RSUExampleScenario.node[112].veinsmobility  posx  ETV
vector 789  RSUExampleScenario.node[112].veinsmobility  posy  ETV
vector 790  RSUExampleScenario.node[112].veinsmobility  speed  ETV
vector 795  RSUExampleScenario.node[113].veinsmobility  posx  ETV
vector 796  RSUExampleScenario.node[113].veinsmobility  posy  ETV
vector 791  RSUExampleScenario.node[112].veinsmobility  acceleration  ETV
vector 792  RSUExampleScenario.node[112].veinsmobility  co2emission  ETV
vector 797  RSUExampleScenario.node[113].veinsmobility  speed  ETV
vector 802  RSUExampleScenario.node[114].veinsmobility  posx  ETV
vector 803  RSUExampleScenario.node[114].veinsmobility  posy  ETV
vector 798  RSUExampleScenario.node[113].veinsmobility  acceleration  ETV
vector 799  RSUExampleScenario.node[113].veinsmobility  co2emission  ETV
vector 804  RSUExampleScenario.node[114].veinsmobility  speed  ETV
vector 805  RSUExampleScenario.node[114].veinsmobility  acceleration  ETV
vector 806  RSUExampleScenario.node[114].veinsmobility  co2emission  ETV
vector 809  RSUExampleScenario.node[115].veinsmobility  posx  ETV
vector 810  RSUExampleScenario.node[115].veinsmobility  posy  ETV
vector 811  RSUExampleScenario.node[115].veinsmobility  speed  ETV
vector 816  RSUExampleScenario.node[116].veinsmobility  posx  ETV
vector 817  RSUExampleScenario.node[116].veinsmobility  posy  ETV
vector 812  RSUExampleScenario.node[115].veinsmobility  acceleration  ETV
vector 813  RSUExampleScenario.node[115].veinsmobility  co2emission  ETV
vector 818  RSUExampleScenario.node[116].veinsmobility  speed  ETV
vector 823  RSUExampleScenario.node[117].veinsmobility  posx  ETV
vector 824  RSUExampleScenario.node[117].veinsmobility  posy  ETV
vector 819  RSUExampleScenario.node[116].veinsmobility  acceleration  ETV
vector 820  RSUExampleScenario.node[116].veinsmobility  co2emission  ETV
vector 825  RSUExampleScenario.node[117].veinsmobility  speed  ETV
vector 826  RSUExampleScenario.node[117].veinsmobility  acceleration  ETV
vector 827  RSUExampleScenario.node[117].veinsmobility  co2emission  ETV
vector 830  RSUExampleScenario.node[118].veinsmobility  posx  ETV
vector 831  RSUExampleScenario.node[118].veinsmobility  posy  ETV
vector 832  RSUExampleScenario.node[118].veinsmobility  speed  ETV
vector 833  RSUExampleScenario.node[118].veinsmobility  acceleration  ETV
vector 834  RSUExampleScenario.node[118].veinsmobility  co2emission  ETV
vector 837  RSUExampleScenario.node[119].veinsmobility  posx  ETV
vector 838  RSUExampleScenario.node[119].veinsmobility  posy  ETV
vector 839  RSUExampleScenario.node[119].veinsmobility  speed  ETV
vector 844  RSUExampleScenario.node[120].veinsmobility  posx  ETV
vector 845  RSUExampleScenario.node[120].veinsmobility  posy  ETV
vector 840  RSUExampleScenario.node[119].veinsmobility  acceleration  ETV
vector 841  RSUExampleScenario.node[119].veinsmobility  co2emission  ETV
vector 846  RSUExampleScenario.node[120].veinsmobility  speed  ETV
vector 847  RSUExampleScenario.node[120].veinsmobility  acceleration  ETV
vector 848  RSUExampleScenario.node[120].veinsmobility  co2emission  ETV
vector 851  RSUExampleScenario.node[121].veinsmobility  posx  ETV
vector 852  RSUExampleScenario.node[121].veinsmobility  posy  ETV
vector 853  RSUExampleScenario.node[121].veinsmobility  speed  ETV
vector 854  RSUExampleScenario.node[121].veinsmobility  acceleration  ETV
vector 855  RSUExampleScenario.node[121].veinsmobility  co2emission  ETV
vector 858  RSUExampleScenario.node[122].veinsmobility  posx  ETV
vector 859  RSUExampleScenario.node[122].veinsmobility  posy  ETV
vector 860  RSUExampleScenario.node[122].veinsmobility  speed  ETV
vector 865  RSUExampleScenario.node[123].veinsmobility  posx  ETV
vector 866  RSUExampleScenario.node[123].veinsmobility  posy  ETV
vector 861  RSUExampleScenario.node[122].veinsmobility  acceleration  ETV
vector 862  RSUExampleScenario.node[122].veinsmobility  co2emission  ETV
vector 867  RSUExampleScenario.node[123].veinsmobility  speed  ETV
vector 868  RSUExampleScenario.node[123].veinsmobility  acceleration  ETV
vector 869  RSUExampleScenario.node[123].veinsmobility  co2emission  ETV
vector 872  RSUExampleScenario.node[124].veinsmobility  posx  ETV
vector 873  RSUExampleScenario.node[124].veinsmobility  posy  ETV
vector 874  RSUExampleScenario.node[124].veinsmobility  speed  ETV
vector 875  RSUExampleScenario.node[124].veinsmobility  acceleration  ETV
vector 876  RSUExampleScenario.node[124].veinsmobility  co2emission  ETV
vector 879  RSUExampleScenario.node[125].veinsmobility  posx  ETV
vector 880  RSUExampleScenario.node[125].veinsmobility  posy  ETV
vector 881  RSUExampleScenario.node[125].veinsmobility  speed  ETV
vector 882  RSUExampleScenario.node[125].veinsmobility  acceleration  ETV
vector 883  RSUExampleScenario.node[125].veinsmobility  co2emission  ETV
vector 886  RSUExampleScenario.node[126].veinsmobility  posx  ETV
vector 887  RSUExampleScenario.node[126].veinsmobility  posy  ETV
vector 888  RSUExampleScenario.node[126].veinsmobility  speed  ETV
vector 889  RSUExampleScenario.node[126].veinsmobility  acceleration  ETV
vector 890  RSUExampleScenario.node[126].veinsmobility  co2emission  ETV
vector 893  RSUExampleScenario.node[127].veinsmobility  posx  ETV
vector 894  RSUExampleScenario.node[127].veinsmobility  posy  ETV
vector 895  RSUExampleScenario.node[127].veinsmobility  speed  ETV
vector 896  RSUExampleScenario.node[127].veinsmobility  acceleration  ETV
vector 897  RSUExampleScenario.node[127].veinsmobility  co2emission  ETV
vector 900  RSUExampleScenario.node[128].veinsmobility  posx  ETV
vector 901  RSUExampleScenario.node[128].veinsmobility  posy  ETV
vector 902  RSUExampleScenario.node[128].veinsmobility  speed  ETV
vector 907  RSUExampleScenario.node[129].veinsmobility  posx  ETV
vector 908  RSUExampleScenario.node[129].veinsmobility  posy  ETV
vector 903  RSUExampleScenario.node[128].veinsmobility  acceleration  ETV
vector 904  RSUExampleScenario.node[128].veinsmobility  co2emission  ETV
vector 909  RSUExampleScenario.node[129].veinsmobility  speed  ETV
vector 910  RSUExampleScenario.node[129].veinsmobility  acceleration  ETV
vector 911  RSUExampleScenario.node[129].veinsmobility  co2emission  ETV
vector 914  RSUExampleScenario.node[130].veinsmobility  posx  ETV
vector 915  RSUExampleScenario.node[130].veinsmobility  posy  ETV
vector 916  RSUExampleScenario.node[130].veinsmobility  speed  ETV
vector 917  RSUExampleScenario.node[130].veinsmobility  acceleration  ETV
vector 918  RSUExampleScenario.node[130].veinsmobility  co2emission  ETV
vector 921  RSUExampleScenario.node[131].veinsmobility  posx  ETV
vector 922  RSUExampleScenario.node[131].veinsmobility  posy  ETV
vector 923  RSUExampleScenario.node[131].veinsmobility  speed  ETV
vector 928  RSUExampleScenario.node[132].veinsmobility  posx  ETV
vector 929  RSUExampleScenario.node[132].veinsmobility  posy  ETV
vector 924  RSUExampleScenario.node[131].veinsmobility  acceleration  ETV
vector 925  RSUExampleScenario.node[131].veinsmobility  co2emission  ETV
vector 930  RSUExampleScenario.node[132].veinsmobility  speed  ETV
vector 931  RSUExampleScenario.node[132].veinsmobility  acceleration  ETV
vector 932  RSUExampleScenario.node[132].veinsmobility  co2emission  ETV
vector 935  RSUExampleScenario.node[133].veinsmobility  posx  ETV
vector 936  RSUExampleScenario.node[133].veinsmobility  posy  ETV
vector 937  RSUExampleScenario.node[133].veinsmobility  speed  ETV
vector 938  RSUExampleScenario.node[133].veinsmobility  acceleration  ETV
vector 939  RSUExampleScenario.node[133].veinsmobility  co2emission  ETV
vector 942  RSUExampleScenario.node[134].veinsmobility  posx  ETV
vector 943  RSUExampleScenario.node[134].veinsmobility  posy  ETV
vector 944  RSUExampleScenario.node[134].veinsmobility  speed  ETV
vector 949  RSUExampleScenario.node[135].veinsmobility  posx  ETV
vector 950  RSUExampleScenario.node[135].veinsmobility  posy  ETV
vector 945  RSUExampleScenario.node[134].veinsmobility  acceleration  ETV
vector 946  RSUExampleScenario.node[134].veinsmobility  co2emission  ETV
vector 951  RSUExampleScenario.node[135].veinsmobility  speed  ETV
vector 952  RSUExampleScenario.node[135].veinsmobility  acceleration  ETV
vector 953  RSUExampleScenario.node[135].veinsmobility  co2emission  ETV
vector 956  RSUExampleScenario.node[136].veinsmobility  posx  ETV
vector 957  RSUExampleScenario.node[136].veinsmobility  posy  ETV
vector 958  RSUExampleScenario.node[136].veinsmobility  speed  ETV
vector 963  RSUExampleScenario.node[137].veinsmobility  posx  ETV
vector 964  RSUExampleScenario.node[137].veinsmobility  posy  ETV
vector 959  RSUExampleScenario.node[136].veinsmobility  acceleration  ETV
vector 960  RSUExampleScenario.node[136].veinsmobility  co2emission  ETV
vector 965  RSUExampleScenario.node[137].veinsmobility  speed  ETV
vector 966  RSUExampleScenario.node[137].veinsmobility  acceleration  ETV
vector 967  RSUExampleScenario.node[137].veinsmobility  co2emission  ETV
vector 970  RSUExampleScenario.node[138].veinsmobility  posx  ETV
vector 971  RSUExampleScenario.node[138].veinsmobility  posy  ETV
vector 972  RSUExampleScenario.node[138].veinsmobility  speed  ETV
vector 973  RSUExampleScenario.node[138].veinsmobility  acceleration  ETV
vector 974  RSUExampleScenario.node[138].veinsmobility  co2emission  ETV
vector 977  RSUExampleScenario.node[139].veinsmobility  posx  ETV
vector 978  RSUExampleScenario.node[139].veinsmobility  posy  ETV
vector 979  RSUExampleScenario.node[139].veinsmobility  speed  ETV
vector 984  RSUExampleScenario.node[140].veinsmobility  posx  ETV
vector 985  RSUExampleScenario.node[140].veinsmobility  posy  ETV
vector 980  RSUExampleScenario.node[139].veinsmobility  acceleration  ETV
vector 981  RSUExampleScenario.node[139].veinsmobility  co2emission  ETV
vector 986  RSUExampleScenario.node[140].veinsmobility  speed  ETV
vector 987  RSUExampleScenario.node[140].veinsmobility  acceleration  ETV
vector 988  RSUExampleScenario.node[140].veinsmobility  co2emission  ETV
8	51227 7161 4 31866 3 329 327 0.973 33.37627103736 953.44696480018 8478.6601443344
7	58388 7279 4 31866 3 329 327 -4.5 5.171069820486 3.7280158130198 846.9371517851
6	65667 7021 3 31866 2 329 328 0 27.768710480146 3402.951633136 61331.095652506
5	72688 8564 2 31866 1 329 329 1217.3423530692 2120.7953938423 498747.07834168 778047986.25026
4	81252 8674 2 31866 1 329 329 208.71689039329 2450.4278615726 436813.22167002 742411466.59698
vector 991  RSUExampleScenario.node[141].veinsmobility  posx  ETV
vector 992  RSUExampleScenario.node[141].veinsmobility  posy  ETV
vector 993  RSUExampleScenario.node[141].veinsmobility  speed  ETV
vector 994  RSUExampleScenario.node[141].veinsmobility  acceleration  ETV
vector 995  RSUExampleScenario.node[141].veinsmobility  co2emission  ETV
vector 998  RSUExampleScenario.node[142].veinsmobility  posx  ETV
vector 999  RSUExampleScenario.node[142].veinsmobility  posy  ETV
vector 1000  RSUExampleScenario.node[142].veinsmobility  speed  ETV
vector 1001  RSUExampleScenario.node[142].veinsmobility  acceleration  ETV
vector 1002  RSUExampleScenario.node[142].veinsmobility  co2emission  ETV
vector 1005  RSUExampleScenario.node[143].veinsmobility  posx  ETV
vector 1006  RSUExampleScenario.node[143].veinsmobility  posy  ETV
vector 1007  RSUExampleScenario.node[143].veinsmobility  speed  ETV
vector 1008  RSUExampleScenario.node[143].veinsmobility  acceleration  ETV
vector 1009  RSUExampleScenario.node[143].veinsmobility  co2emission  ETV
vector 1012  RSUExampleScenario.node[144].veinsmobility  posx  ETV
vector 1013  RSUExampleScenario.node[144].veinsmobility  posy  ETV
vector 1014  RSUExampleScenario.node[144].veinsmobility  speed  ETV
vector 1015  RSUExampleScenario.node[144].veinsmobility  acceleration  ETV
vector 1016  RSUExampleScenario.node[144].veinsmobility  co2emission  ETV
vector 1019  RSUExampleScenario.node[145].veinsmobility  posx  ETV
vector 1020  RSUExampleScenario.node[145].veinsmobility  posy  ETV
vector 1021  RSUExampleScenario.node[145].veinsmobility  speed  ETV
vector 1022  RSUExampleScenario.node[145].veinsmobility  acceleration  ETV
vector 1023  RSUExampleScenario.node[145].veinsmobility  co2emission  ETV
22	91674 9169 8 40046 7 416 410 0.973 30.813682513993 988.61256736146 6795.9108964241
21	100843 9439 8 40046 7 416 410 -4.5 5.6 5.5727041504651 752.16332507735
20	110282 9152 7 40046 6 416 411 0 27.777677725879 3401.9535638011 58880.034259423
19	119434 11357 6 40046 5 416 412 1216.103327143 2120.5535120554 642149.84689338 1039691614.2891
18	130791 11434 6 40046 5 416 412 209.37507751537 2450.0954562895 517139.1609753 920217746.7946
29	142225 9118 10 40057 9 419 411 -0.59656284061144 30.360151436556 1019.7272474163 7544.2282338613
28	151343 9488 10 40057 9 419 411 -4.5 5.2542543614881 7.083007573545 837.1530297742
27	160831 9195 9 40057 8 419 412 0 27.750909077181 3406.1252009413 58617.828471099
26	170026 11440 8 40057 7 419 413 1216.1128926966 2120.8036144441 647964.56503563 1054566781.0479
25	181466 11466 8 40057 7 419 413 205.81822804746 2450.3857637221 527300.24141275 927578592.60501
36	192932 9135 11 40078 10 424 415 0.973 29.783652142168 1007.7202841079 7325.082430582
35	202067 9601 11 40078 10 424 415 -4.5 5.1921591391321 7.3243700352824 790.99037162121
34	211668 9289 10 40078 9 424 416 0 27.75182667057 3404.3763785357 57986.464592744
33	220957 11602 9 40078 8 424 417 1216.6388883227 2120.3836950734 654299.2027343 1064433622.9307
32	232559 11605 9 40078 8 424 417 207.33715050831 2450.4834751619 532062.74629563 935081398.71249
43	244164 9175 13 40099 12 429 418 0.973 28.913408316741 1018.9052192133 7705.1629100878
42	253339 9707 13 40099 12 429 418 -4.5 4.9206558194757 3.2545831275912 789.72407720606
41	263046 9358 12 40099 11 429 419 0 27.763528873604 3402.6538950486 58376.707928926
40	272404 11703 11 40099 10 429 420 1216.8662076117 2120.3819291405 660366.8886691 1075819687.8685
39	284107 11653 11 40099 10 429 420 209.45443733234 2450.3526944926 542437.90628609 957686875.99125
15	295760 9582 6 40141 5 439 435 0.973 15.069549340392 976.86613618047 4316.4277056774
14	305342 10171 6 40141 5 439 435 -1.5 1.831594245264 4.3697510244221 401.86135822876
13	315513 10156 5 40141 4 439 436 0 27.778188040318 3401.1757446509 53077.899457135
12	325669 12141 4 40141 3 439 437 1216.1979946392 2120.893814832 671904.24792447 1073429472.7958
11	337810 12108 4 40141 3 439 437 204.1747815602 2450.3140188782 558593.36466099 966097673.15953
vector 1026  RSUExampleScenario.node[146].veinsmobility  posx  ETV
vector 1027  RSUExampleScenario.node[146].veinsmobility  posy  ETV
vector 1028  RSUExampleScenario.node[146].veinsmobility  speed  ETV
vector 1033  RSUExampleScenario.node[147].veinsmobility  posx  ETV
vector 1034  RSUExampleScenario.node[147].veinsmobility  posy  ETV
vector 1029  RSUExampleScenario.node[146].veinsmobility  acceleration  ETV
vector 1030  RSUExampleScenario.node[146].veinsmobility  co2emission  ETV
vector 1040  RSUExampleScenario.node[148].veinsmobility  posx  ETV
vector 1041  RSUExampleScenario.node[148].veinsmobility  posy  ETV
vector 1035  RSUExampleScenario.node[147].veinsmobility  speed  ETV
vector 1036  RSUExampleScenario.node[147].veinsmobility  acceleration  ETV
vector 1037  RSUExampleScenario.node[147].veinsmobility  co2emission  ETV
vector 1042  RSUExampleScenario.node[148].veinsmobility  speed  ETV
vector 1047  RSUExampleScenario.node[149].veinsmobility  posx  ETV
vector 1048  RSUExampleScenario.node[149].veinsmobility  posy  ETV
vector 1043  RSUExampleScenario.node[148].veinsmobility  acceleration  ETV
vector 1044  RSUExampleScenario.node[148].veinsmobility  co2emission  ETV
vector 1054  RSUExampleScenario.node[150].veinsmobility  posx  ETV
vector 1055  RSUExampleScenario.node[150].veinsmobility  posy  ETV
vector 1049  RSUExampleScenario.node[149].veinsmobility  speed  ETV
vector 1061  RSUExampleScenario.node[151].veinsmobility  posx  ETV
vector 1062  RSUExampleScenario.node[151].veinsmobility  posy  ETV
vector 1050  RSUExampleScenario.node[149].veinsmobility  acceleration  ETV
vector 1051  RSUExampleScenario.node[149].veinsmobility  co2emission  ETV
vector 1056  RSUExampleScenario.node[150].veinsmobility  speed  ETV
vector 1057  RSUExampleScenario.node[150].veinsmobility  acceleration  ETV
vector 1058  RSUExampleScenario.node[150].veinsmobility  co2emission  ETV
vector 1063  RSUExampleScenario.node[151].veinsmobility  speed  ETV
vector 1068  RSUExampleScenario.node[152].veinsmobility  posx  ETV
vector 1069  RSUExampleScenario.node[152].veinsmobility  posy  ETV
vector 1064  RSUExampleScenario.node[151].veinsmobility  acceleration  ETV
vector 1065  RSUExampleScenario.node[151].veinsmobility  co2emission  ETV
vector 1075  RSUExampleScenario.node[153].veinsmobility  posx  ETV
vector 1076  RSUExampleScenario.node[153].veinsmobility  posy  ETV
vector 1070  RSUExampleScenario.node[152].veinsmobility  speed  ETV
vector 1071  RSUExampleScenario.node[152].veinsmobility  acceleration  ETV
vector 1072  RSUExampleScenario.node[152].veinsmobility  co2emission  ETV
vector 1077  RSUExampleScenario.node[153].veinsmobility  speed  ETV
vector 1082  RSUExampleScenario.node[154].veinsmobility  posx  ETV
vector 1083  RSUExampleScenario.node[154].veinsmobility  posy  ETV
vector 1078  RSUExampleScenario.node[153].veinsmobility  acceleration  ETV
vector 1079  RSUExampleScenario.node[153].veinsmobility  co2emission  ETV
vector 1089  RSUExampleScenario.node[155].veinsmobility  posx  ETV
vector 1090  RSUExampleScenario.node[155].veinsmobility  posy  ETV
vector 1084  RSUExampleScenario.node[154].veinsmobility  speed  ETV
vector 1096  RSUExampleScenario.node[156].veinsmobility  posx  ETV
vector 1097  RSUExampleScenario.node[156].veinsmobility  posy  ETV
vector 1085  RSUExampleScenario.node[154].veinsmobility  acceleration  ETV
vector 1086  RSUExampleScenario.node[154].veinsmobility  co2emission  ETV
vector 1091  RSUExampleScenario.node[155].veinsmobility  speed  ETV
vector 1092  RSUExampleScenario.node[155].veinsmobility  acceleration  ETV
vector 1093  RSUExampleScenario.node[155].veinsmobility  co2emission  ETV
vector 1098  RSUExampleScenario.node[156].veinsmobility  speed  ETV
vector 1103  RSUExampleScenario.node[157].veinsmobility  posx  ETV
vector 1104  RSUExampleScenario.node[157].veinsmobility  posy  ETV
vector 1099  RSUExampleScenario.node[156].veinsmobility  acceleration  ETV
vector 1100  RSUExampleScenario.node[156].veinsmobility  co2emission  ETV
vector 1110  RSUExampleScenario.node[158].veinsmobility  posx  ETV
vector 1111  RSUExampleScenario.node[158].veinsmobility  posy  ETV
vector 1105  RSUExampleScenario.node[157].veinsmobility  speed  ETV
vector 1106  RSUExampleScenario.node[157].veinsmobility  acceleration  ETV
vector 1107  RSUExampleScenario.node[157].veinsmobility  co2emission  ETV
vector 1112  RSUExampleScenario.node[158].veinsmobility  speed  ETV
50	354332 10381 15 40366 14 492 479 0.973 13.87747216524 957.43363124463 3945.0756172603
49	364713 10921 15 40366 14 492 479 -1.5 1.941955567383 2.545941238082 294.86546723755
48	375634 10612 14 40366 13 492 480 0 27.779343798762 3395.665503089 55444.248829732
47	386246 13381 13 40366 12 492 481 1216.5719799688 2120.9336745767 738280.86265697 1177415473.9885
46	399627 13428 13 40366 12 492 481 204.39789932 2450.4068745655 585737.45828861 1016946383.1684
vector 1117  RSUExampleScenario.node[159].veinsmobility  posx  ETV
vector 1118  RSUExampleScenario.node[159].veinsmobility  posy  ETV
vector 1113  RSUExampleScenario.node[158].veinsmobility  acceleration  ETV
vector 1114  RSUExampleScenario.node[158].veinsmobility  co2emission  ETV
vector 1124  RSUExampleScenario.node[160].veinsmobility  posx  ETV
vector 1125  RSUExampleScenario.node[160].veinsmobility  posy  ETV
vector 1119  RSUExampleScenario.node[159].veinsmobility  speed  ETV
vector 1131  RSUExampleScenario.node[161].veinsmobility  posx  ETV
vector 1132  RSUExampleScenario.node[161].veinsmobility  posy  ETV
vector 1120  RSUExampleScenario.node[159].veinsmobility  acceleration  ETV
vector 1121  RSUExampleScenario.node[159].veinsmobility  co2emission  ETV
vector 1126  RSUExampleScenario.node[160].veinsmobility  speed  ETV
vector 1127  RSUExampleScenario.node[160].veinsmobility  acceleration  ETV
vector 1128  RSUExampleScenario.node[160].veinsmobility  co2emission  ETV
vector 1133  RSUExampleScenario.node[161].veinsmobility  speed  ETV
vector 1138  RSUExampleScenario.node[162].veinsmobility  posx  ETV
vector 1139  RSUExampleScenario.node[162].veinsmobility  posy  ETV
vector 1134  RSUExampleScenario.node[161].veinsmobility  acceleration  ETV
vector 1135  RSUExampleScenario.node[161].veinsmobility  co2emission  ETV
vector 1145  RSUExampleScenario.node[163].veinsmobility  posx  ETV
vector 1146  RSUExampleScenario.node[163].veinsmobility  posy  ETV
vector 1140  RSUExampleScenario.node[162].veinsmobility  speed  ETV
vector 1141  RSUExampleScenario.node[162].veinsmobility  acceleration  ETV
vector 1142  RSUExampleScenario.node[162].veinsmobility  co2emission  ETV
vector 1147  RSUExampleScenario.node[163].veinsmobility  speed  ETV
vector 1152  RSUExampleScenario.node[164].veinsmobility  posx  ETV
vector 1153  RSUExampleScenario.node[164].veinsmobility  posy  ETV
vector 1148  RSUExampleScenario.node[163].veinsmobility  acceleration  ETV
vector 1149  RSUExampleScenario.node[163].veinsmobility  co2emission  ETV
vector 1159  RSUExampleScenario.node[165].veinsmobility  posx  ETV
vector 1160  RSUExampleScenario.node[165].veinsmobility  posy  ETV
vector 1154  RSUExampleScenario.node[164].veinsmobility  speed  ETV
vector 1166  RSUExampleScenario.node[166].veinsmobility  posx  ETV
vector 1167  RSUExampleScenario.node[166].veinsmobility  posy  ETV
vector 1155  RSUExampleScenario.node[164].veinsmobility  acceleration  ETV
vector 1156  RSUExampleScenario.node[164].veinsmobility  co2emission  ETV
vector 1161  RSUExampleScenario.node[165].veinsmobility  speed  ETV
vector 1162  RSUExampleScenario.node[165].veinsmobility  acceleration  ETV
vector 1163  RSUExampleScenario.node[165].veinsmobility  co2emission  ETV
vector 1168  RSUExampleScenario.node[166].veinsmobility  speed  ETV
vector 1173  RSUExampleScenario.node[167].veinsmobility  posx  ETV
vector 1174  RSUExampleScenario.node[167].veinsmobility  posy  ETV
vector 1169  RSUExampleScenario.node[166].veinsmobility  acceleration  ETV
vector 1170  RSUExampleScenario.node[166].veinsmobility  co2emission  ETV
vector 1180  RSUExampleScenario.node[168].veinsmobility  posx  ETV
vector 1181  RSUExampleScenario.node[168].veinsmobility  posy  ETV
vector 1175  RSUExampleScenario.node[167].veinsmobility  speed  ETV
vector 1176  RSUExampleScenario.node[167].veinsmobility  acceleration  ETV
vector 1177  RSUExampleScenario.node[167].veinsmobility  co2emission  ETV
vector 1182  RSUExampleScenario.node[168].veinsmobility  speed  ETV
vector 1187  RSUExampleScenario.node[169].veinsmobility  posx  ETV
vector 1188  RSUExampleScenario.node[169].veinsmobility  posy  ETV
vector 1183  RSUExampleScenario.node[168].veinsmobility  acceleration  ETV
vector 1184  RSUExampleScenario.node[168].veinsmobility  co2emission  ETV
vector 1194  RSUExampleScenario.node[170].veinsmobility  posx  ETV
vector 1195  RSUExampleScenario.node[170].veinsmobility  posy  ETV
vector 1189  RSUExampleScenario.node[169].veinsmobility  speed  ETV
vector 1201  RSUExampleScenario.node[171].veinsmobility  posx  ETV
vector 1202  RSUExampleScenario.node[171].veinsmobility  posy  ETV
vector 1190  RSUExampleScenario.node[169].veinsmobility  acceleration  ETV
vector 1191  RSUExampleScenario.node[169].veinsmobility  co2emission  ETV
vector 1196  RSUExampleScenario.node[170].veinsmobility  speed  ETV
vector 1197  RSUExampleScenario.node[170].veinsmobility  acceleration  ETV
vector 1198  RSUExampleScenario.node[170].veinsmobility  co2emission  ETV
vector 1203  RSUExampleScenario.node[171].veinsmobility  speed  ETV
vector 1208  RSUExampleScenario.node[172].veinsmobility  posx  ETV
vector 1209  RSUExampleScenario.node[172].veinsmobility  posy  ETV
vector 1204  RSUExampleScenario.node[171].veinsmobility  acceleration  ETV
vector 1205  RSUExampleScenario.node[171].veinsmobility  co2emission  ETV
57	417901 10853 17 40439 16 511 496 0.973 23.313052489229 1042.3169017184 5619.2995363315
56	428754 11528 17 40439 16 511 496 -4.5 4.9890266720679 6.8562149668562 599.77645961541
55	440282 11067 16 40439 15 511 497 0 27.737601034408 3400.4833420538 56652.674465867
54	451349 13977 15 40439 14 511 498 1217.1468574032 2120.6620206097 760849.65807785 1207944570.0238
53	465326 13971 15 40439 14 511 498 210.77282246854 2450.0600857328 600364.20418914 1035328045.1822
vector 1215  RSUExampleScenario.node[173].veinsmobility  posx  ETV
vector 1216  RSUExampleScenario.node[173].veinsmobility  posy  ETV
vector 1210  RSUExampleScenario.node[172].veinsmobility  speed  ETV
vector 1211  RSUExampleScenario.node[172].veinsmobility  acceleration  ETV
vector 1212  RSUExampleScenario.node[172].veinsmobility  co2emission  ETV
vector 1217  RSUExampleScenario.node[173].veinsmobility  speed  ETV
vector 1222  RSUExampleScenario.node[174].veinsmobility  posx  ETV
vector 1223  RSUExampleScenario.node[174].veinsmobility  posy  ETV
vector 1218  RSUExampleScenario.node[173].veinsmobility  acceleration  ETV
vector 1219  RSUExampleScenario.node[173].veinsmobility  co2emission  ETV
vector 1229  RSUExampleScenario.node[175].veinsmobility  posx  ETV
vector 1230  RSUExampleScenario.node[175].veinsmobility  posy  ETV
vector 1224  RSUExampleScenario.node[174].veinsmobility  speed  ETV
78	480201 10797 22 40456 21 515 495 0.036860777224147 27.304206522558 1028.1368977233 6951.2212349
77	490998 11522 22 40456 21 515 495 -3.4326312298363 5.2636679013819 3.6254194014283 613.62062724154
76	502520 11008 21 40456 20 515 496 0 27.751222434836 3397.2860127944 57702.4444355
75	513528 13961 20 40456 19 515 497 1217.5092225596 2120.3821691675 761634.42240895 1212581856.9289
74	527489 13958 20 40456 19 515 497 210.68689116288 2450.4855983388 604131.53668142 1046991883.5462
vector 1225  RSUExampleScenario.node[174].veinsmobility  acceleration  ETV
vector 1226  RSUExampleScenario.node[174].veinsmobility  co2emission  ETV
vector 1231  RSUExampleScenario.node[175].veinsmobility  speed  ETV
vector 1236  RSUExampleScenario.node[176].veinsmobility  posx  ETV
vector 1237  RSUExampleScenario.node[176].veinsmobility  posy  ETV
vector 1232  RSUExampleScenario.node[175].veinsmobility  acceleration  ETV
vector 1233  RSUExampleScenario.node[175].veinsmobility  co2emission  ETV
vector 1243  RSUExampleScenario.node[177].veinsmobility  posx  ETV
vector 1244  RSUExampleScenario.node[177].veinsmobility  posy  ETV
vector 1238  RSUExampleScenario.node[176].veinsmobility  speed  ETV
71	542149 10922 20 40466 19 518 500 0.973 22.541234353703 1053.0306972233 6354.5688078232
70	553071 11601 20 40466 19 518 500 -4.5 5.2518372967356 7.5488936094495 703.08845794622
69	564672 11239 19 40466 18 518 501 0 27.77740391098 3407.8632563115 56302.343525662
68	575911 14062 18 40466 17 518 502 1216.8525887681 2120.5161766419 769913.12544828 1225938893.3623
67	589973 14044 18 40466 17 518 502 205.8003033034 2450.3971729765 608371.58211666 1044440677.3038
vector 1239  RSUExampleScenario.node[176].veinsmobility  acceleration  ETV
vector 1240  RSUExampleScenario.node[176].veinsmobility  co2emission  ETV
vector 1245  RSUExampleScenario.node[177].veinsmobility  speed  ETV
vector 1250  RSUExampleScenario.node[178].veinsmobility  posx  ETV
vector 1251  RSUExampleScenario.node[178].veinsmobility  posy  ETV
vector 1246  RSUExampleScenario.node[177].veinsmobility  acceleration  ETV
vector 1247  RSUExampleScenario.node[177].veinsmobility  co2emission  ETV
64	604517 11008 19 40478 18 520 503 0.65964578157921 19.667638517978 1063.9387965206 5735.285998481
63	615525 11651 19 40478 18 520 503 -4.5 5.2343739679549 4.492367601484 704.69754182663
62	627176 11259 18 40478 17 520 504 0 27.773561144182 3400.1482887868 55553.237966649
61	638435 14187 17 40478 16 520 505 1216.0929966653 2120.9288486345 774515.96353596 1232623418.2388
60	652622 14141 17 40478 16 520 505 208.18061063159 2450.4866271248 617501.61561771 1056346090.0389
vector 1252  RSUExampleScenario.node[178].veinsmobility  speed  ETV
vector 1257  RSUExampleScenario.node[179].veinsmobility  posx  ETV
vector 1258  RSUExampleScenario.node[179].veinsmobility  posy  ETV
vector 1253  RSUExampleScenario.node[178].veinsmobility  acceleration  ETV
vector 1254  RSUExampleScenario.node[178].veinsmobility  co2emission  ETV
85	667114 10970 23 51718 22 522 501 0.973 30.175226491725 1081.6086778907 7544.3096971876
84	678084 11653 23 51718 22 522 501 -4.5 5.0582038805192 3.3702859230551 768.14028470229
83	689737 11251 22 51718 21 522 502 0 27.749026262658 3398.0127225994 56543.859353476
82	700988 14135 21 51718 20 522 503 1216.5442418233 2120.4007445062 766300.58553775 1214178822.7054
81	715123 14101 21 51718 20 522 503 210.05258589052 2450.384855778 627859.04328822 1078664446.6963
vector 1264  RSUExampleScenario.node[180].veinsmobility  posx  ETV
vector 1265  RSUExampleScenario.node[180].veinsmobility  posy  ETV
vector 1259  RSUExampleScenario.node[179].veinsmobility  speed  ETV
vector 1260  RSUExampleScenario.node[179].veinsmobility  acceleration  ETV
vector 1261  RSUExampleScenario.node[179].veinsmobility  co2emission  ETV
vector 1266  RSUExampleScenario.node[180].veinsmobility  speed  ETV
vector 1271  RSUExampleScenario.node[181].veinsmobility  posx  ETV
vector 1272  RSUExampleScenario.node[181].veinsmobility  posy  ETV
vector 1267  RSUExampleScenario.node[180].veinsmobility  acceleration  ETV
vector 1268  RSUExampleScenario.node[180].veinsmobility  co2emission  ETV
vector 1273  RSUExampleScenario.node[181].veinsmobility  speed  ETV
vector 1278  RSUExampleScenario.node[182].veinsmobility  posx  ETV
vector 1279  RSUExampleScenario.node[182].veinsmobility  posy  ETV
vector 1274  RSUExampleScenario.node[181].veinsmobility  acceleration  ETV
vector 1275  RSUExampleScenario.node[181].veinsmobility  co2emission  ETV
vector 1280  RSUExampleScenario.node[182].veinsmobility  speed  ETV
vector 1285  RSUExampleScenario.node[183].veinsmobility  posx  ETV
vector 1286  RSUExampleScenario.node[183].veinsmobility  posy  ETV
vector 1281  RSUExampleScenario.node[182].veinsmobility  acceleration  ETV
vector 1282  RSUExampleScenario.node[182].veinsmobility  co2emission  ETV
vector 1292  RSUExampleScenario.node[184].veinsmobility  posx  ETV
vector 1293  RSUExampleScenario.node[184].veinsmobility  posy  ETV
vector 1287  RSUExampleScenario.node[183].veinsmobility  speed  ETV
vector 1288  RSUExampleScenario.node[183].veinsmobility  acceleration  ETV
vector 1289  RSUExampleScenario.node[183].veinsmobility  co2emission  ETV
vector 1294  RSUExampleScenario.node[184].veinsmobility  speed  ETV
vector 1299  RSUExampleScenario.node[185].veinsmobility  posx  ETV
vector 1300  RSUExampleScenario.node[185].veinsmobility  posy  ETV
vector 1295  RSUExampleScenario.node[184].veinsmobility  acceleration  ETV
vector 1296  RSUExampleScenario.node[184].veinsmobility  co2emission  ETV
vector 1301  RSUExampleScenario.node[185].veinsmobility  speed  ETV
vector 1306  RSUExampleScenario.node[186].veinsmobility  posx  ETV
vector 1307  RSUExampleScenario.node[186].veinsmobility  posy  ETV
vector 1302  RSUExampleScenario.node[185].veinsmobility  acceleration  ETV
vector 1303  RSUExampleScenario.node[185].veinsmobility  co2emission  ETV
vector 1308  RSUExampleScenario.node[186].veinsmobility  speed  ETV
vector 1313  RSUExampleScenario.node[187].veinsmobility  posx  ETV
vector 1314  RSUExampleScenario.node[187].veinsmobility  posy  ETV
vector 1309  RSUExampleScenario.node[186].veinsmobility  acceleration  ETV
vector 1310  RSUExampleScenario.node[186].veinsmobility  co2emission  ETV
vector 1315  RSUExampleScenario.node[187].veinsmobility  speed  ETV
vector 1320  RSUExampleScenario.node[188].veinsmobility  posx  ETV
vector 1321  RSUExampleScenario.node[188].veinsmobility  posy  ETV
vector 1316  RSUExampleScenario.node[187].veinsmobility  acceleration  ETV
vector 1317  RSUExampleScenario.node[187].veinsmobility  co2emission  ETV
vector 1322  RSUExampleScenario.node[188].veinsmobility  speed  ETV
vector 1327  RSUExampleScenario.node[189].veinsmobility  posx  ETV
vector 1328  RSUExampleScenario.node[189].veinsmobility  posy  ETV
vector 1323  RSUExampleScenario.node[188].veinsmobility  acceleration  ETV
vector 1324  RSUExampleScenario.node[188].veinsmobility  co2emission  ETV
vector 1334  RSUExampleScenario.node[190].veinsmobility  posx  ETV
vector 1335  RSUExampleScenario.node[190].veinsmobility  posy  ETV
vector 1329  RSUExampleScenario.node[189].veinsmobility  speed  ETV
vector 1330  RSUExampleScenario.node[189].veinsmobility  acceleration  ETV
vector 1331  RSUExampleScenario.node[189].veinsmobility  co2emission  ETV
vector 1336  RSUExampleScenario.node[190].veinsmobility  speed  ETV
vector 1341  RSUExampleScenario.node[191].veinsmobility  posx  ETV
vector 1342  RSUExampleScenario.node[191].veinsmobility  posy  ETV
vector 1337  RSUExampleScenario.node[190].veinsmobility  acceleration  ETV
vector 1338  RSUExampleScenario.node[190].veinsmobility  co2emission  ETV
vector 1343  RSUExampleScenario.node[191].veinsmobility  speed  ETV
vector 1348  RSUExampleScenario.node[192].veinsmobility  posx  ETV
vector 1349  RSUExampleScenario.node[192].veinsmobility  posy  ETV
vector 1344  RSUExampleScenario.node[191].veinsmobility  acceleration  ETV
vector 1345  RSUExampleScenario.node[191].veinsmobility  co2emission  ETV
vector 1350  RSUExampleScenario.node[192].veinsmobility  speed  ETV
vector 1355  RSUExampleScenario.node[193].veinsmobility  posx  ETV
vector 1356  RSUExampleScenario.node[193].veinsmobility  posy  ETV
vector 1351  RSUExampleScenario.node[192].veinsmobility  acceleration  ETV
vector 1352  RSUExampleScenario.node[192].veinsmobility  co2emission  ETV
vector 1357  RSUExampleScenario.node[193].veinsmobility  speed  ETV
99	734206 11740 28 51816 27 548 522 0.77427503412539 17.181714223196 1072.6847800042 5443.3551412337
98	745946 12432 28 51816 27 548 522 -4.5 5.0981802898023 6.1935537354687 651.61594807469
97	758378 12000 27 51816 26 548 523 0 27.745688289832 3399.4199860594 55845.885166657
96	770378 14759 26 51816 25 548 524 1217.7266367432 2120.6161878332 796969.08169312 1262002508.9952
95	785137 14758 26 51816 25 548 524 210.78951848566 2450.2129085162 649895.89981244 1122142666.1897
vector 1362  RSUExampleScenario.node[194].veinsmobility  posx  ETV
vector 1363  RSUExampleScenario.node[194].veinsmobility  posy  ETV
vector 1358  RSUExampleScenario.node[193].veinsmobility  acceleration  ETV
vector 1359  RSUExampleScenario.node[193].veinsmobility  co2emission  ETV
vector 1364  RSUExampleScenario.node[194].veinsmobility  speed  ETV
vector 1369  RSUExampleScenario.node[195].veinsmobility  posx  ETV
vector 1370  RSUExampleScenario.node[195].veinsmobility  posy  ETV
vector 1365  RSUExampleScenario.node[194].veinsmobility  acceleration  ETV
vector 1366  RSUExampleScenario.node[194].veinsmobility  co2emission  ETV
vector 1371  RSUExampleScenario.node[195].veinsmobility  speed  ETV
vector 1376  RSUExampleScenario.node[196].veinsmobility  posx  ETV
vector 1377  RSUExampleScenario.node[196].veinsmobility  posy  ETV
vector 1372  RSUExampleScenario.node[195].veinsmobility  acceleration  ETV
vector 1373  RSUExampleScenario.node[195].veinsmobility  co2emission  ETV
vector 1378  RSUExampleScenario.node[196].veinsmobility  speed  ETV
vector 1383  RSUExampleScenario.node[197].veinsmobility  posx  ETV
vector 1384  RSUExampleScenario.node[197].veinsmobility  posy  ETV
vector 1379  RSUExampleScenario.node[196].veinsmobility  acceleration  ETV
vector 1380  RSUExampleScenario.node[196].veinsmobility  co2emission  ETV
vector 1385  RSUExampleScenario.node[197].veinsmobility  speed  ETV
vector 1390  RSUExampleScenario.node[198].veinsmobility  posx  ETV
vector 1391  RSUExampleScenario.node[198].veinsmobility  posy  ETV
vector 1386  RSUExampleScenario.node[197].veinsmobility  acceleration  ETV
vector 1387  RSUExampleScenario.node[197].veinsmobility  co2emission  ETV
vector 1392  RSUExampleScenario.node[198].veinsmobility  speed  ETV
vector 1397  RSUExampleScenario.node[199].veinsmobility  posx  ETV
vector 1398  RSUExampleScenario.node[199].veinsmobility  posy  ETV
vector 1393  RSUExampleScenario.node[198].veinsmobility  acceleration  ETV
vector 1394  RSUExampleScenario.node[198].veinsmobility  co2emission  ETV
92	801933 12018 26 51859 25 559 535 0.973 13.795849795224 1045.9529926381 4225.6118986246
91	813951 12807 26 51859 25 559 535 -1.5 1.8898175697721 4.1139156617848 359.49045940975
90	826758 12764 25 51859 24 559 536 0 27.755570773735 3401.192553598 48509.248247062
89	839522 15127 24 51859 23 559 537 1216.2447609846 2120.8430251637 824657.20039484 1316407736.8074
88	854649 15135 24 51859 23 559 537 203.94618188241 2450.1846176332 670430.70950228 1166505895.1521
vector 1399  RSUExampleScenario.node[199].veinsmobility  speed  ETV
vector 1404  RSUExampleScenario.node[200].veinsmobility  posx  ETV
vector 1405  RSUExampleScenario.node[200].veinsmobility  posy  ETV
vector 1400  RSUExampleScenario.node[199].veinsmobility  acceleration  ETV
vector 1401  RSUExampleScenario.node[199].veinsmobility  co2emission  ETV
113	870135 12374 31 51867 30 561 532 0.973 29.440873986482 1125.1282860463 7567.0733046428
112	882509 13189 31 51867 30 561 532 -4.5 5.0947664354543 5.3951019138728 731.8120137927
111	895698 12801 30 51867 29 561 533 0 27.755628853943 3400.5556180952 53029.955353198
110	908499 15613 29 51867 28 561 534 1216.5509146294 2120.4880381208 819865.62452023 1309276262.291
109	924112 15560 29 51867 28 561 534 208.38579643494 2450.6204846838 667479.54324716 1162474365.2059
vector 1406  RSUExampleScenario.node[200].veinsmobility  speed  ETV
vector 1411  RSUExampleScenario.node[201].veinsmobility  posx  ETV
vector 1412  RSUExampleScenario.node[201].veinsmobility  posy  ETV
vector 1407  RSUExampleScenario.node[200].veinsmobility  acceleration  ETV
vector 1408  RSUExampleScenario.node[200].veinsmobility  co2emission  ETV
120	940023 12390 33 51876 32 563 532 0.85300330682342 29.698221974756 1129.8808770468 8473.1678022183
119	952413 13270 33 51876 32 563 532 -4.5 5.0508205926232 3.63538761808 732.19514321554
118	965683 12777 32 51876 31 563 533 0 27.646818479709 3393.7321749972 54054.445133345
117	978460 15607 31 51876 30 563 534 1217.0313746771 2120.9527955605 822087.23433049 1316452975.6465
116	994067 15516 31 51876 30 563 534 209.8850564044 2450.4987197731 673090.57952477 1176632914.9873
vector 1413  RSUExampleScenario.node[201].veinsmobility  speed  ETV
[...]
2421	33955029 22291 113905 138666 1396 2149 754 0 16.653850483857 3260.9099186548 36876.025130655
2420	33977320 24816 113902 138666 1395 2149 755 1096.8142971797 1701.1116305385 1001680.5535695 1354503810.6208
2419	34002136 24800 113902 138666 1395 2149 755 206.74420798139 2438.4348145956 1401659.9516613 2914362846.7035
2430	34026936 21100 113915 138668 1400 2151 752 0.973 16.746840958516 1241.8515532023 4863.9005542994
2429	34048036 23062 113915 138668 1400 2151 752 -3.8243822925941 5.4400955451559 6.6026508327807 692.68955047502
2428	34071098 22204 113911 138668 1399 2151 753 0 16.66234706413 3259.9948672218 36484.868258324
2427	34093302 24814 113909 138668 1398 2151 754 1096.6847920455 1701.0748836854 1001450.8614051 1355783936.6178
2426	34118116 24816 113909 138668 1398 2151 754 208.8873249254 2438.3316209213 1400243.666197 2913481056.9872
2437	34142932 21041 113922 138671 1403 2154 752 0.973 18.912323303784 1240.9457025241 4967.0501747521
2436	34163973 23015 113922 138671 1403 2154 752 -3.6428091449306 5.2532989825774 8.9683268653336 674.5748527917
2435	34186988 22154 113921 138671 1402 2154 753 0 16.667386276256 3264.1781345542 36188.21876712
2434	34209142 24832 113916 138671 1401 2154 754 1097.1453897739 1701.07107432 1002652.0490334 1359105441.4276
2433	34233974 24829 113916 138671 1401 2154 754 206.25638251449 2438.3600834972 1399252.1469897 2912633199.4527
2444	34258803 21045 113927 138673 1405 2156 752 0.973 17.150354323271 1236.4845571833 4579.9964337084
2443	34279848 22829 113927 138673 1405 2156 752 -4.5 5.2618824348971 7.4204865790217 657.74202717927
2442	34302677 22023 113925 138673 1404 2156 753 0 16.646194750248 3257.589802364 35716.019624295
2441	34324700 24820 113922 138673 1403 2156 754 1096.8841036716 1701.0760146985 1003625.2617484 1361828713.7832
2440	34349520 24818 113922 138673 1403 2156 754 208.55179191311 2438.3995981693 1401043.9518716 2919387538.8689
2647	34374338 18722 125598 138677 1485 2160 676 0.973 10.619614969984 1177.6365497321 3686.1715247097
2646	34393060 20123 125598 138677 1485 2160 676 -2.5 2.8534541332789 7.4391953271056 528.30811477889
2645	34413183 19421 125596 138677 1484 2160 677 0 16.669550538729 3669.8716449061 42687.146445802
2644	34432604 22241 125592 138677 1483 2160 678 1141.6067070682 1908.285930207 944925.16896896 1351230234.8607
2643	34454845 22324 125592 138677 1483 2160 678 204.48914419126 2414.9977617121 1123491.3386628 2086042611.0013
2451	34477169 21157 113934 138679 1408 2162 755 0.973 16.439622576314 1251.7736666129 4838.2112772317
2450	34498326 23281 113934 138679 1408 2162 755 -3.4303259962425 5.1084216732019 7.6322898605097 720.42690189524
2449	34521607 22408 113931 138679 1407 2162 756 0 16.668167432789 3260.4061001608 36872.02672769
2448	34544015 24765 113930 138679 1406 2162 757 1096.6686215336 1701.0750122098 1009960.0040407 1373339812.673
2447	34568780 24929 113930 138679 1406 2162 757 207.82147827686 2438.3465083314 1416257.1382332 2965920402.3999
2458	34593709 21319 113941 138681 1410 2164 755 0.973 15.677370549801 1231.5285250518 4681.9120454197
2457	34615028 23218 113941 138681 1410 2164 755 -4.5 5.2112698804401 6.3700428688571 682.68642279849
2456	34638246 22391 113936 138681 1409 2164 756 0 16.660196918892 3258.1650758833 36420.342176136
2455	34660637 24929 113934 138681 1408 2164 757 1096.3003578801 1701.0828693146 1014991.8139007 1385621286.8943
2454	34685566 24928 113934 138681 1408 2164 757 209.79899831943 2438.5052014497 1421712.8724773 2989882581.1659
2465	34710494 21254 113946 138684 1413 2167 755 0.973 17.13041094596 1234.6535137573 4912.5605844555
2464	34731748 23086 113946 138684 1413 2167 755 -4.4493597753969 5.3130884284806 8.827845903211 707.25755168556
2463	34754834 22354 113945 138684 1412 2167 756 0 16.669406839572 3263.5180309044 36652.006996142
2462	34777188 24916 113942 138684 1411 2167 757 1097.1585582457 1701.1130923238 1016150.4487429 1389057593.9157
2461	34802104 24931 113942 138684 1411 2167 757 206.90114141011 2438.4552829108 1426341.3052381 3010280940.4176
2472	34827035 21333 113953 138686 1416 2169 754 0.973 16.976246102384 1231.150203333 4637.469752004
2471	34848368 23154 113953 138686 1416 2169 754 -3.677828867168 5.1507888988964 7.2777688347339 679.23716110927
2470	34871522 22301 113950 138686 1415 2169 755 0 16.656806883728 3260.3859255373 36546.481136967
2469	34893823 24894 113949 138686 1414 2169 756 1097.1674052635 1701.1191044385 1019416.3365588 1398728533.495
2468	34918717 24856 113949 138686 1414 2169 756 209.02335728263 2438.3542330038 1428539.7600301 3023709747.8079
2479	34943573 21358 113959 138689 1418 2172 755 0.973 17.835371826147 1217.8429475866 4626.7751887438
2478	34964931 23269 113959 138689 1418 2172 755 -3.239537029696 5.4896475766413 10.608802558153 621.5134228176
2477	34988200 22381 113954 138689 1417 2172 756 0 16.66356296638 3265.2597147561 37034.496909599
2476	35010581 24933 113953 138689 1416 2172 757 1096.9367897315 1701.1118322415 1026610.5931445 1415082008.6171
2475	35035514 24865 113953 138689 1416 2172 757 205.69454019843 2438.5067068225 1435186.813591 3050200227.2646
2486	35060379 21363 113969 138691 1421 2174 754 0.973 19.562448005439 1203.9166869698 4305.8955737615
2485	35081742 23218 113969 138691 1421 2174 754 -2.7966235658691 5.4421831469006 8.5225116740233 559.8055224352
2484	35104960 22329 113965 138691 1420 2174 755 0 16.66408714843 3262.2259089349 36799.862901399
2483	35127289 24832 113961 138691 1419 2174 756 1096.3983808002 1701.1060159756 1026851.0080445 1417608949.6707
2482	35152121 24887 113961 138691 1419 2174 756 207.49835954269 2438.4784806045 1434293.421918 3050339268.733
2493	35177008 21310 113976 138693 1424 2176 753 0.973 19.351746645377 1191.947492888 4323.5209483451
2492	35198318 23171 113976 138693 1424 2176 753 -3.070753028295 4.9954036078898 7.2229658679373 524.04705820653
2491	35221489 22273 113973 138693 1423 2176 754 0 16.669012941439 3260.3920821036 36755.893615809
2490	35243762 24776 113972 138693 1422 2176 755 1096.3059679735 1701.0689715417 1027525.068722 1421166156.8512
2489	35268538 24859 113972 138693 1422 2176 755 209.6040318117 2438.3872124754 1435559.2928638 3059166830.1164
2500	35293397 21420 113980 138696 1426 2179 754 0.973 17.625594943864 1198.6276279722 4388.0884363757
2499	35314817 23199 113980 138696 1426 2179 754 -2.9647684596178 5.1621625654213 10.941086101371 525.83622403992
2498	35338016 22303 113977 138696 1425 2179 755 0 16.663246493498 3268.2983985292 36736.164806177
2497	35360319 24880 113976 138696 1424 2179 756 1096.8850743603 1701.0310287867 1030901.7758417 1428574461.7267
2496	35385199 24895 113976 138696 1424 2179 756 205.71036093624 2438.336775589 1437621.1998264 3066656588.7017
2507	35410094 21461 113987 138698 1429 2181 753 0.973 17.859874928794 1192.5754573211 4284.8869991134
2506	35431555 23167 113987 138698 1429 2181 753 -3.8636776271928 5.0226328315745 9.2225010173331 539.596538563
2505	35454722 22274 113985 138698 1428 2181 754 0 16.667330297083 3262.5882953181 36815.070970426
2504	35476996 24855 113982 138698 1427 2181 755 1096.3966902057 1701.1241617212 1032018.2778888 1433990753.2338
2503	35501851 24856 113982 138698 1427 2181 755 207.56058219227 2438.3055325444 1436617.4830245 3066065463.1642
2514	35526707 21278 113994 138700 1431 2183 753 0.973 16.568893515709 1190.2134958983 4337.3689941419
2513	35547985 23185 113994 138700 1431 2183 753 -3.2627851182224 5.3985290351603 8.0622475706787 564.38558122404
2512	35571170 22272 113991 138700 1430 2183 754 0 16.666661505438 3257.6136617036 36679.532089424
2511	35593442 24853 113987 138700 1429 2183 755 1097.1418044679 1701.0012898548 1034104.8682318 1439324876.0003
2510	35618295 24812 113987 138700 1429 2183 755 209.2951101074 2438.4668537973 1439850.8287453 3078739548.1035
2521	35643107 21308 124584 138703 1434 2186 753 0.973 17.007796576426 1190.7579251704 4369.6957645032
2520	35664415 23149 124584 138703 1434 2186 753 -3.170323538743 4.9365020971232 10.177403397402 517.09117426327
2519	35687564 22243 113998 138703 1433 2186 754 0 16.653552007256 3267.0087735713 36606.408129141
2518	35709807 24712 113996 138703 1432 2186 755 1096.1934185764 1700.94505696 1035553.9328919 1443287611.8993
2517	35734519 24813 113996 138703 1432 2186 755 205.69032317738 2438.4964083175 1438692.4078111 3076940572.9614
2654	35759332 19326 125611 138706 1488 2189 702 0.973 12.447837160022 1215.6498640693 3788.760993894
2653	35778658 21184 125611 138706 1488 2189 702 -2.5 2.8175802710257 5.4769136879553 585.81348007633
2652	35799842 20508 125607 138706 1487 2189 703 0 16.66963583236 3660.9768626904 41723.349635919
2651	35820350 23133 125603 138706 1486 2189 704 1141.6798717184 1908.3173333406 988731.62357096 1423175549.1522
2650	35843483 23153 125603 138706 1486 2189 704 207.31789891166 2414.9926344227 1168814.6379107 2165089017.8336
2661	35866636 19510 125622 138710 1491 2193 703 0.973 11.157741014035 1190.9368344231 3498.0162111456
2660	35886146 21178 125622 138710 1491 2193 703 -2.5 2.936718334233 7.0852247979038 524.41066537438
2659	35907324 20407 125617 138710 1490 2193 704 0 16.668494005898 3668.2270943266 42075.514136839
2658	35927731 23208 125615 138710 1489 2193 705 1141.6018396132 1907.8845307492 997893.8082609 1446279756.2496
2657	35950939 23178 125615 138710 1489 2193 705 204.1666665792 2414.834151068 1175457.1835444 2187302350.9789
2668	35974117 19361 125633 138713 1494 2196 703 0.973 10.199744063383 1184.9639514589 3462.6115923629
2667	35993478 21113 125633 138713 1494 2196 703 -2.1027212488731 2.8139370317615 6.4539751601889 502.82146558998
2666	36014591 20346 125628 138713 1493 2196 704 0 16.668823065681 3669.3417053984 41779.833253863
2665	36034937 23174 125625 138713 1492 2196 705 1141.8832177073 1907.6497603506 1000644.7731847 1454618720.949
2664	36058111 23198 125625 138713 1492 2196 705 204.57098789897 2414.6646173969 1178135.800483 2197261723.4073
2675	36081309 19314 125639 138716 1497 2199 703 0.973 10.956067861196 1161.4161242184 3302.4140176048
2674	36100623 21112 125639 138716 1497 2199 703 -1.9064415114508 2.8477829562069 5.2460369424299 437.07881750914
2673	36121735 20323 125638 138716 1496 2199 704 0 16.669733587761 3665.006204664 41539.754501547
2672	36142058 23217 125634 138716 1495 2199 705 1142.0325363828 1907.3935375689 1002074.7837192 1459090497.8362
2671	36165275 23169 125634 138716 1495 2199 705 205.36859224644 2414.3136100265 1179704.7919319 2202299266.9534
2682	36188444 19436 125644 138719 1499 2202 704 0.973 10.712025262848 1179.6034297547 3509.2154905507
2681	36207880 21197 125644 138719 1499 2202 704 -1.9560830935877 2.9501919097174 4.8637888114102 477.30095969922
2680	36229077 20411 125642 138719 1498 2202 705 0 16.661729925958 3663.2685482651 42006.458596389
2679	36249488 23237 125639 138719 1497 2202 706 1141.6163754407 1907.6731272181 1005925.5675838 1468029389.6174
2678	36272725 23153 125639 138719 1497 2202 706 206.49925906304 2415.3723971299 1184207.4127448 2215507321.0262
2689	36295878 19544 125657 138723 1502 2206 705 0.973 10.823522059362 1200.3257231166 3559.060608102
2688	36315422 21233 125657 138723 1502 2206 705 -2.5 2.7508825129275 6.3024811230481 553.25556592481
2687	36336655 20574 125655 138723 1501 2206 706 0 16.669018069291 3671.7676992589 41479.640751091
2686	36357229 23249 125648 138723 1500 2206 707 1141.6233945731 1908.1499860771 1011261.3528837 1480474306.1903
2685	36380478 23277 125648 138723 1500 2206 707 204.31614182203 2414.9928221825 1188408.8802211 2230022007.5539
2696	36403755 19223 125666 138726 1505 2209 705 0.973 12.161797081898 1183.2513321564 3505.049025786
2695	36422978 21118 125666 138726 1505 2209 705 -2.1362873151174 2.7682189486649 5.6719876315102 503.32022418092
2694	36444096 20338 125663 138726 1504 2209 706 0 16.66838028285 3667.7006428669 40999.786888633
2693	36464434 23277 125660 138726 1503 2209 707 1141.851543624 1908.3187238239 1013455.3228131 1486794280.3488
2692	36487711 23238 125660 138726 1503 2209 707 204.88582445495 2414.2323871189 1189375.285351 2233148279.2367
2703	36510949 19205 125672 138729 1507 2212 706 0.973 10.910919839645 1171.4600802401 3350.0240703959
2702	36530154 21172 125672 138729 1507 2212 706 -2.5 2.8152342170126 4.9782010234647 495.19295527935
2701	36551326 20413 125670 138729 1506 2212 707 0 16.668846234983 3666.1391135523 40517.721584669
2700	36571739 23322 125666 138729 1505 2212 708 1142.1872205501 1908.0246466324 1017435.5470222 1495891238.2663
2699	36595061 23314 125666 138729 1505 2212 708 205.63919241633 2415.2324142673 1195823.8695604 2253365476.3018
2710	36618375 19325 125682 138732 1510 2215 706 0.973 10.871091876967 1183.3960024645 3409.3703701668
2709	36637700 21191 125682 138732 1510 2215 706 -2.5 2.852808751394 4.3813663651724 534.42628865522
2708	36658891 20516 125681 138732 1509 2215 707 0 16.669110461976 3664.0989916552 39865.880600036
2707	36679407 23161 125675 138732 1508 2215 708 1141.7815959323 1907.2416746262 1019915.2590588 1503567991.7855
2706	36702568 23263 125675 138732 1508 2215 708 206.40295959276 2414.4371219326 1200444.3882902 2271408790.564
2717	36725831 19320 136439 138736 1512 2219 708 0.973 10.601564093511 1193.6689744901 3646.4445995064
2716	36745151 21266 136439 138736 1512 2219 708 -2.1450564876438 2.9250321041374 6.3162844171801 503.91074455492
2715	36766417 20461 135201 138736 1511 2219 709 0 16.667759421851 3669.5019953501 40723.191432633
2714	36786878 23367 125682 138736 1510 2219 710 1141.5815593647 1907.4331814013 1025360.6060324 1515119589.7084
2713	36810245 23339 125682 138736 1510 2219 710 204.08395697596 2415.2317960621 1206762.9058789 2290608534.8086
1856	36833584 26961 99858 138739 1229 2222 994 0.973 11.38042968966 1577.2965159916 4614.442893693
1855	36860545 31827 99858 138739 1229 2222 994 -2.5 2.749906752446 4.4700884680453 671.77448447005
1854	36892372 30908 99857 138739 1228 2222 995 0 16.666090900224 3781.7516080341 41618.526272576
1853	36923280 32741 99856 138739 1227 2222 996 1141.5996074164 1907.1819037916 1507371.5527737 2326440878.9453
1852	36956021 32787 99856 138739 1227 2222 996 204.64326206781 2414.8406251295 1876274.4986421 3857807754.8908
1863	36988808 27101 99860 138742 1231 2225 995 0.973 11.110052587883 1546.1522518351 4368.4045362779
1862	37015909 31872 99860 138742 1231 2225 995 -2.0650825636588 2.9145781807543 4.4044025241889 561.71652782304
1861	37047781 30834 99859 138742 1230 2225 996 0 16.665410216312 3778.9997134228 41747.604900305
1860	37078615 32602 99858 138742 1229 2225 997 1141.6304031257 1908.2677260321 1511420.6230997 2336552563.8322
1859	37111217 32806 99858 138742 1229 2225 997 205.15879390959 2414.9949040852 1878872.5797807 3864755660.3334
1870	37144023 27328 99862 138745 1233 2228 996 0.973 11.48724775809 1539.7289641558 4278.7230396824
1869	37171351 31895 99862 138745 1233 2228 996 -2.5 2.81715283775 4.3091922298519 574.54119221271
1868	37203246 30877 99861 138745 1232 2228 997 0 16.669259753122 3778.3694574692 41276.101698467
1867	37234123 32824 99860 138745 1231 2228 998 1141.6765778111 1908.2711402224 1513787.1526759 2341135887.1157
1866	37266947 32855 99860 138745 1231 2228 998 205.92843242304 2415.1245579181 1882959.0310014 3877977015.8341
1877	37299802 27529 99865 138748 1235 2231 997 0.973 10.700875165163 1542.4319819719 4320.6845635201
1876	37327331 31873 99865 138748 1235 2231 997 -2.5 2.880076897355 3.2373568698025 566.32458391058
1875	37359204 30886 99863 138748 1234 2231 998 0 16.66363408471 3777.1506221201 40767.77430477
1874	37390090 32877 99862 138748 1233 2231 999 1141.9100150764 1907.6750952462 1518411.8786491 2353467812.0389
1873	37422967 32891 99862 138748 1233 2231 999 206.85456901521 2415.2340118162 1885082.7726704 3883091753.8969
2563	37455858 21719 125493 138751 1450 2234 785 0.973 19.10569717175 1381.3471539419 5876.5216149035
2562	37477577 24193 125493 138751 1450 2234 785 -4.5 5.011615693168 7.8706997812611 959.19596282749
2561	37501770 23316 125491 138751 1449 2234 786 0 16.669680393832 3780.6995936468 43283.453134945
2560	37525086 25919 125488 138751 1448 2234 787 1141.5948706763 1906.5546638006 1167243.1490892 1768413609.8732
2559	37551005 25913 125488 138751 1448 2234 787 206.83562288026 2415.4155812677 1400656.5554501 2775649932.8197
2570	37576918 21733 125505 138753 1453 2236 784 0.973 18.249696013125 1358.6351958421 6255.2969299231
2569	37598651 24237 125505 138753 1453 2236 784 -3.9363150951708 5.2323720878549 5.5995324136296 937.68909726375
2568	37622888 23267 125500 138753 1452 2236 785 0 16.661298099672 3774.7336291389 43525.161122184
2567	37646155 25844 125498 138753 1451 2236 786 1141.6466756938 1907.4525455376 1175427.3120828 1795402084.9548
2566	37671999 25881 125498 138753 1451 2236 786 209.2094558985 2414.9308612164 1401877.7312771 2785604453.8319
2577	37697880 21861 125509 138756 1455 2239 785 0.973 18.264815915764 1373.4857695659 5972.2497780766
2576	37719741 24201 125509 138756 1455 2239 785 -4.5 5.2098184884433 8.3537780622504 958.63443191436
2575	37743942 23292 125506 138756 1454 2239 786 0 16.666647972893 3778.705804122 42761.357860733
2574	37767234 25912 125505 138756 1453 2239 787 1141.6944462322 1908.2666818388 1178757.1621437 1802498671.1558
2573	37793146 25774 125505 138756 1453 2239 787 206.89673365036 2415.7379433888 1403548.8626756 2791939916.3342
2584	37818920 21835 125516 138759 1458 2242 785 0.973 11.0246378388 1329.4564953687 4062.2792251662
2583	37840755 24055 125516 138759 1458 2242 785 -2.5 3.03001602762 5.6111095487657 626.87952247787
2582	37864810 23249 125513 138759 1457 2242 786 0 16.669524474171 3780.01925245 41105.857566294
2581	37888059 25914 125510 138759 1456 2242 787 1141.6211789129 1907.6380938562 1185432.376583 1822863136.0095
2580	37913973 25819 125510 138759 1456 2242 787 206.82872128836 2415.2295173105 1405443.2374213 2794852911.4878
2591	37939792 21926 125525 138762 1461 2245 785 0.973 11.885192166136 1302.2121508907 3892.9240428822
2590	37961718 24136 125525 138762 1461 2245 785 -2.1535674069296 2.8523776949523 5.2420606876866 543.30982547206
2589	37985854 23222 125520 138762 1460 2245 786 0 16.665811625124 3776.1025303372 42550.400479867
2588	38009076 25892 125519 138762 1459 2245 787 1141.6211437294 1908.3342282632 1192686.3801387 1844510216.9157
2587	38034968 25908 125519 138762 1459 2245 787 207.20788027951 2415.2355746785 1408559.7641242 2807403903.6046
2598	38060876 21801 125538 138766 1464 2249 786 0.973 11.496387062602 1302.1777765244 3891.8986977585
2597	38082677 24136 125538 138766 1464 2249 786 -2.1027438781275 2.9644729538891 6.8084326211606 532.74449928689
2596	38106813 23207 125534 138766 1463 2249 787 0 16.668179487031 3783.6975168796 42191.945806865
2595	38130020 25921 125528 138766 1462 2249 788 1141.7380486149 1908.3349183053 1195119.1932049 1849290203.539
2594	38155941 25950 125528 138766 1462 2249 788 204.43573943886 2415.1242355176 1411108.5726994 2816647663.5171
2605	38181891 21770 125546 138769 1467 2252 786 0.973 10.527515384735 1322.2780597547 4022.3280897556
2604	38203661 24075 125546 138769 1467 2252 786 -2.5 2.8632546463655 6.1030306199972 602.61881592288
2603	38227736 23283 125544 138769 1466 2252 787 0 16.66969548746 3780.8607112739 41391.374176246
2602	38251019 25950 125541 138769 1465 2252 788 1141.8406389989 1908.2086670371 1195773.5187214 1851383275.7722
2601	38276969 25944 125541 138769 1465 2252 788 204.86352145835 2414.9971630328 1416969.2293034 2839878797.9231
2612	38302913 21905 125555 138772 1470 2255 786 0.973 11.218121261976 1328.5378527489 4140.6569256461
2611	38324818 24181 125555 138772 1470 2255 786 -2.4908043652272 2.8558719829877 6.0252147635564 582.35071423315
2610	38348999 23234 125550 138772 1469 2255 787 0 16.669695852967 3776.31828489 42417.578915591
2609	38372233 25954 125548 138772 1468 2255 788 1142.1105639348 1907.9597819531 1201838.1572152 1869879878.3892
2608	38398187 25895 125548 138772 1468 2255 788 205.49391475797 2414.8441704334 1421635.8213285 2858108366.7225
